1H-Indole-5-methanol
 OpenBabel06142111183D
1075-25-8 Copyright (C) 2021 ACS
 20 21  0  0  0  0  0  0  0  0999 V2000
    0.9065   -0.0247   -0.0347 C   0  0  0  1  0  0  0  0  0  0  0  0
    1.8615    0.0078   -1.0853 O   0  0  0  1  0  0  0  0  0  0  0  0
    0.8148   -3.7860    0.2167 C   0  0  0  1  0  0  0  0  0  0  0  0
   -0.3411   -3.9500    1.0075 C   0  0  0  1  0  0  0  0  0  0  0  0
    1.2132   -2.4857   -0.1220 C   0  0  0  1  0  0  0  0  0  0  0  0
    1.3257   -5.0954   -0.0585 C   0  0  0  1  0  0  0  0  0  0  0  0
   -1.0807   -2.8656    1.4682 C   0  0  0  1  0  0  0  0  0  0  0  0
   -0.5300   -5.3040    1.2014 N   0  0  0  1  0  0  0  0  0  0  0  0
    0.4791   -1.4174    0.3260 C   0  0  0  1  0  0  0  0  0  0  0  0
    0.4920   -5.9903    0.5633 C   0  0  0  1  0  0  0  0  0  0  0  0
   -0.6622   -1.6033    1.1142 C   0  0  0  1  0  0  0  0  0  0  0  0
    0.0433    0.5281   -0.3415 H   0  0  0  1  0  0  0  0  0  0  0  0
    1.3361    0.4350    0.8307 H   0  0  0  1  0  0  0  0  0  0  0  0
    2.7437   -0.0909   -0.7197 H   0  0  0  1  0  0  0  0  0  0  0  0
    2.0584   -2.3322   -0.7083 H   0  0  0  1  0  0  0  0  0  0  0  0
    2.1688   -5.3245   -0.6227 H   0  0  0  1  0  0  0  0  0  0  0  0
   -1.9235   -3.0045    2.0616 H   0  0  0  1  0  0  0  0  0  0  0  0
   -1.2642   -5.7120    1.7062 H   0  0  0  1  0  0  0  0  0  0  0  0
    0.6086   -7.0237    0.5569 H   0  0  0  1  0  0  0  0  0  0  0  0
   -1.2022   -0.7753    1.4372 H   0  0  0  1  0  0  0  0  0  0  0  0
  1  2  1  0  0  0  0
  1  9  1  0  0  0  0
  1 12  1  0  0  0  0
  1 13  1  0  0  0  0
  2 14  1  0  0  0  0
  3  4  1  0  0  0  0
  3  5  2  0  0  0  0
  3  6  1  0  0  0  0
  4  7  2  0  0  0  0
  4  8  1  0  0  0  0
  5  9  1  0  0  0  0
  5 15  1  0  0  0  0
  6 10  2  0  0  0  0
  6 16  1  0  0  0  0
  7 11  1  0  0  0  0
  7 17  1  0  0  0  0
  8 10  1  0  0  0  0
  8 18  1  0  0  0  0
  9 11  2  0  0  0  0
 10 19  1  0  0  0  0
 11 20  1  0  0  0  0
M  END
> <ConfClashScore>
0 

> <ConfOneFourInteractionScore>
-0.988242 

> <ConfScore>
-0.0929688 

> <ConfScorePBest>
0.0150985 

> <ConfTolerance>
0.0286979 

$$$$
﻿1H-Indole-5-methanol
 OpenBabel06142111183D
1075-25-8 Copyright (C) 2021 ACS
 20 21  0  0  0  0  0  0  0  0999 V2000
    0.9069   -0.0234   -0.0351 C   0  0  0  1  0  0  0  0  0  0  0  0
    2.3108    0.0691    0.1585 O   0  0  0  1  0  0  0  0  0  0  0  0
    0.8148   -3.7861    0.2167 C   0  0  0  1  0  0  0  0  0  0  0  0
   -0.3411   -3.9501    1.0075 C   0  0  0  1  0  0  0  0  0  0  0  0
    1.2131   -2.4858   -0.1220 C   0  0  0  1  0  0  0  0  0  0  0  0
    1.3257   -5.0955   -0.0585 C   0  0  0  1  0  0  0  0  0  0  0  0
   -1.0807   -2.8657    1.4682 C   0  0  0  1  0  0  0  0  0  0  0  0
   -0.5300   -5.3041    1.2015 N   0  0  0  1  0  0  0  0  0  0  0  0
    0.4790   -1.4174    0.3260 C   0  0  0  1  0  0  0  0  0  0  0  0
    0.4920   -5.9904    0.5633 C   0  0  0  1  0  0  0  0  0  0  0  0
   -0.6623   -1.6034    1.1142 C   0  0  0  1  0  0  0  0  0  0  0  0
    0.6678    0.1759   -1.0588 H   0  0  0  1  0  0  0  0  0  0  0  0
    0.4066    0.6839    0.5928 H   0  0  0  1  0  0  0  0  0  0  0  0
    2.4912    0.5361    0.9776 H   0  0  0  1  0  0  0  0  0  0  0  0
    2.0583   -2.3323   -0.7082 H   0  0  0  1  0  0  0  0  0  0  0  0
    2.1688   -5.3246   -0.6226 H   0  0  0  1  0  0  0  0  0  0  0  0
   -1.9235   -3.0046    2.0616 H   0  0  0  1  0  0  0  0  0  0  0  0
   -1.2642   -5.7121    1.7062 H   0  0  0  1  0  0  0  0  0  0  0  0
    0.6086   -7.0238    0.5569 H   0  0  0  1  0  0  0  0  0  0  0  0
   -1.2022   -0.7754    1.4372 H   0  0  0  1  0  0  0  0  0  0  0  0
  1  2  1  0  0  0  0
  1  9  1  0  0  0  0
  1 12  1  0  0  0  0
  1 13  1  0  0  0  0
  2 14  1  0  0  0  0
  3  4  1  0  0  0  0
  3  5  2  0  0  0  0
  3  6  1  0  0  0  0
  4  7  2  0  0  0  0
  4  8  1  0  0  0  0
  5  9  1  0  0  0  0
  5 15  1  0  0  0  0
  6 10  2  0  0  0  0
  6 16  1  0  0  0  0
  7 11  1  0  0  0  0
  7 17  1  0  0  0  0
  8 10  1  0  0  0  0
  8 18  1  0  0  0  0
  9 11  2  0  0  0  0
 10 19  1  0  0  0  0
 11 20  1  0  0  0  0
M  END
> <ConfClashScore>
0 

> <ConfOneFourInteractionScore>
-0.988242 

> <ConfScore>
-0.0650512 

> <ConfScorePBest>
0.0149955 

> <ConfTolerance>
0.0277492 

$$$$
﻿1H-Indole-5-methanol
 OpenBabel06142111183D
1075-25-8 Copyright (C) 2021 ACS
 20 21  0  0  0  0  0  0  0  0999 V2000
    0.9065   -0.0247   -0.0347 C   0  0  0  1  0  0  0  0  0  0  0  0
    0.2170    0.9211    0.7694 O   0  0  0  1  0  0  0  0  0  0  0  0
    0.8148   -3.7860    0.2167 C   0  0  0  1  0  0  0  0  0  0  0  0
   -0.3411   -3.9500    1.0075 C   0  0  0  1  0  0  0  0  0  0  0  0
    1.2132   -2.4857   -0.1220 C   0  0  0  1  0  0  0  0  0  0  0  0
    1.3257   -5.0954   -0.0585 C   0  0  0  1  0  0  0  0  0  0  0  0
   -1.0807   -2.8656    1.4682 C   0  0  0  1  0  0  0  0  0  0  0  0
   -0.5300   -5.3040    1.2014 N   0  0  0  1  0  0  0  0  0  0  0  0
    0.4791   -1.4174    0.3260 C   0  0  0  1  0  0  0  0  0  0  0  0
    0.4920   -5.9903    0.5633 C   0  0  0  1  0  0  0  0  0  0  0  0
   -0.6622   -1.6033    1.1142 C   0  0  0  1  0  0  0  0  0  0  0  0
    1.9597    0.0750    0.1263 H   0  0  0  1  0  0  0  0  0  0  0  0
    0.6839    0.1579   -1.0653 H   0  0  0  1  0  0  0  0  0  0  0  0
   -0.5717    1.2182    0.3096 H   0  0  0  1  0  0  0  0  0  0  0  0
    2.0584   -2.3322   -0.7083 H   0  0  0  1  0  0  0  0  0  0  0  0
    2.1688   -5.3245   -0.6227 H   0  0  0  1  0  0  0  0  0  0  0  0
   -1.9235   -3.0045    2.0616 H   0  0  0  1  0  0  0  0  0  0  0  0
   -1.2642   -5.7120    1.7062 H   0  0  0  1  0  0  0  0  0  0  0  0
    0.6086   -7.0237    0.5569 H   0  0  0  1  0  0  0  0  0  0  0  0
   -1.2022   -0.7753    1.4372 H   0  0  0  1  0  0  0  0  0  0  0  0
  1  2  1  0  0  0  0
  1  9  1  0  0  0  0
  1 12  1  0  0  0  0
  1 13  1  0  0  0  0
  2 14  1  0  0  0  0
  3  4  1  0  0  0  0
  3  5  2  0  0  0  0
  3  6  1  0  0  0  0
  4  7  2  0  0  0  0
  4  8  1  0  0  0  0
  5  9  1  0  0  0  0
  5 15  1  0  0  0  0
  6 10  2  0  0  0  0
  6 16  1  0  0  0  0
  7 11  1  0  0  0  0
  7 17  1  0  0  0  0
  8 10  1  0  0  0  0
  8 18  1  0  0  0  0
  9 11  2  0  0  0  0
 10 19  1  0  0  0  0
 11 20  1  0  0  0  0
M  END
> <ConfClashScore>
0 

> <ConfOneFourInteractionScore>
-0.988242 

> <ConfScore>
-0.0588285 

> <ConfScorePBest>
0.0148925 

> <ConfTolerance>
0.0254928 

$$$$
﻿1H-Indole-5-methanol
 OpenBabel06142111183D
1075-25-8 Copyright (C) 2021 ACS
 20 21  0  0  0  0  0  0  0  0999 V2000
    0.9802   -0.0517   -0.0837 C   0  0  0  1  0  0  0  0  0  0  0  0
    0.2565    0.9041    0.7127 O   0  0  0  1  0  0  0  0  0  0  0  0
    0.8098   -3.7807    0.2198 C   0  0  0  1  0  0  0  0  0  0  0  0
   -0.3453   -3.9507    1.0104 C   0  0  0  1  0  0  0  0  0  0  0  0
    1.2034   -2.4781   -0.1158 C   0  0  0  1  0  0  0  0  0  0  0  0
    1.3254   -5.0875   -0.0587 C   0  0  0  1  0  0  0  0  0  0  0  0
   -1.0887   -2.8702    1.4740 C   0  0  0  1  0  0  0  0  0  0  0  0
   -0.5292   -5.3059    1.2011 N   0  0  0  1  0  0  0  0  0  0  0  0
    0.4655   -1.4135    0.3351 C   0  0  0  1  0  0  0  0  0  0  0  0
    0.4951   -5.9870    0.5610 C   0  0  0  1  0  0  0  0  0  0  0  0
   -0.6749   -1.6056    1.1230 C   0  0  0  1  0  0  0  0  0  0  0  0
    2.0304    0.0241    0.1068 H   0  0  0  1  0  0  0  0  0  0  0  0
    0.7932    0.1131   -1.1243 H   0  0  0  1  0  0  0  0  0  0  0  0
   -0.5858    1.0972    0.2946 H   0  0  0  1  0  0  0  0  0  0  0  0
    2.0479   -2.3200   -0.7018 H   0  0  0  1  0  0  0  0  0  0  0  0
    2.1692   -5.3121   -0.6236 H   0  0  0  1  0  0  0  0  0  0  0  0
   -1.9309   -3.0136    2.0671 H   0  0  0  1  0  0  0  0  0  0  0  0
   -1.2619   -5.7179    1.7050 H   0  0  0  1  0  0  0  0  0  0  0  0
    0.6154   -7.0199    0.5520 H   0  0  0  1  0  0  0  0  0  0  0  0
   -1.2178   -0.7803    1.4482 H   0  0  0  1  0  0  0  0  0  0  0  0
  1  2  1  0  0  0  0
  1  9  1  0  0  0  0
  1 12  1  0  0  0  0
  1 13  1  0  0  0  0
  2 14  1  0  0  0  0
  3  4  1  0  0  0  0
  3  5  2  0  0  0  0
  3  6  1  0  0  0  0
  4  7  2  0  0  0  0
  4  8  1  0  0  0  0
  5  9  1  0  0  0  0
  5 15  1  0  0  0  0
  6 10  2  0  0  0  0
  6 16  1  0  0  0  0
  7 11  1  0  0  0  0
  7 17  1  0  0  0  0
  8 10  1  0  0  0  0
  8 18  1  0  0  0  0
  9 11  2  0  0  0  0
 10 19  1  0  0  0  0
 11 20  1  0  0  0  0
M  END
> <ConfClashScore>
0 

> <ConfOneFourInteractionScore>
-0.988242 

> <ConfScore>
-0.0588285 

> <ConfScorePBest>
0.0147895 

> <ConfTolerance>
0.0449749 

$$$$
﻿1H-Indole-5-methanol
 OpenBabel06142111183D
1075-25-8 Copyright (C) 2021 ACS
 20 21  0  0  0  0  0  0  0  0999 V2000
    0.9456   -0.0316   -0.0611 C   0  0  0  1  0  0  0  0  0  0  0  0
    2.1004   -0.1252   -0.8824 O   0  0  0  1  0  0  0  0  0  0  0  0
    0.8122   -3.7837    0.2184 C   0  0  0  1  0  0  0  0  0  0  0  0
   -0.3433   -3.9508    1.0090 C   0  0  0  1  0  0  0  0  0  0  0  0
    1.2081   -2.4822   -0.1188 C   0  0  0  1  0  0  0  0  0  0  0  0
    1.3255   -5.0919   -0.0585 C   0  0  0  1  0  0  0  0  0  0  0  0
   -1.0849   -2.8684    1.4712 C   0  0  0  1  0  0  0  0  0  0  0  0
   -0.5297   -5.3054    1.2013 N   0  0  0  1  0  0  0  0  0  0  0  0
    0.4721   -1.4158    0.3307 C   0  0  0  1  0  0  0  0  0  0  0  0
    0.4935   -5.9891    0.5622 C   0  0  0  1  0  0  0  0  0  0  0  0
   -0.6688   -1.6049    1.1188 C   0  0  0  1  0  0  0  0  0  0  0  0
    0.1682    0.4691   -0.5995 H   0  0  0  1  0  0  0  0  0  0  0  0
    1.1836    0.5240    0.8218 H   0  0  0  1  0  0  0  0  0  0  0  0
    2.8876   -0.0417   -0.3393 H   0  0  0  1  0  0  0  0  0  0  0  0
    2.0529   -2.3264   -0.7049 H   0  0  0  1  0  0  0  0  0  0  0  0
    2.1690   -5.3186   -0.6231 H   0  0  0  1  0  0  0  0  0  0  0  0
   -1.9273   -3.0096    2.0645 H   0  0  0  1  0  0  0  0  0  0  0  0
   -1.2631   -5.7155    1.7057 H   0  0  0  1  0  0  0  0  0  0  0  0
    0.6120   -7.0223    0.5545 H   0  0  0  1  0  0  0  0  0  0  0  0
   -1.2103   -0.7783    1.4429 H   0  0  0  1  0  0  0  0  0  0  0  0
  1  2  1  0  0  0  0
  1  9  1  0  0  0  0
  1 12  1  0  0  0  0
  1 13  1  0  0  0  0
  2 14  1  0  0  0  0
  3  4  1  0  0  0  0
  3  5  2  0  0  0  0
  3  6  1  0  0  0  0
  4  7  2  0  0  0  0
  4  8  1  0  0  0  0
  5  9  1  0  0  0  0
  5 15  1  0  0  0  0
  6 10  2  0  0  0  0
  6 16  1  0  0  0  0
  7 11  1  0  0  0  0
  7 17  1  0  0  0  0
  8 10  1  0  0  0  0
  8 18  1  0  0  0  0
  9 11  2  0  0  0  0
 10 19  1  0  0  0  0
 11 20  1  0  0  0  0
M  END
> <ConfClashScore>
0 

> <ConfOneFourInteractionScore>
-0.988242 

> <ConfScore>
-0.0588285 

> <ConfScorePBest>
0.0146865 

> <ConfTolerance>
0.0193373 

$$$$
﻿1H-Indole-5-methanol
 OpenBabel06142111183D
1075-25-8 Copyright (C) 2021 ACS
 20 21  0  0  0  0  0  0  0  0999 V2000
    0.9065   -0.0247   -0.0347 C   0  0  0  1  0  0  0  0  0  0  0  0
    1.9457   -0.0684   -1.0017 O   0  0  0  1  0  0  0  0  0  0  0  0
    0.8148   -3.7860    0.2167 C   0  0  0  1  0  0  0  0  0  0  0  0
   -0.3411   -3.9500    1.0075 C   0  0  0  1  0  0  0  0  0  0  0  0
    1.2132   -2.4857   -0.1220 C   0  0  0  1  0  0  0  0  0  0  0  0
    1.3257   -5.0954   -0.0585 C   0  0  0  1  0  0  0  0  0  0  0  0
   -1.0807   -2.8656    1.4682 C   0  0  0  1  0  0  0  0  0  0  0  0
   -0.5300   -5.3040    1.2014 N   0  0  0  1  0  0  0  0  0  0  0  0
    0.4791   -1.4174    0.3260 C   0  0  0  1  0  0  0  0  0  0  0  0
    0.4920   -5.9903    0.5633 C   0  0  0  1  0  0  0  0  0  0  0  0
   -0.6622   -1.6033    1.1142 C   0  0  0  1  0  0  0  0  0  0  0  0
    0.0709    0.5088   -0.4373 H   0  0  0  1  0  0  0  0  0  0  0  0
    1.2604    0.4752    0.8426 H   0  0  0  1  0  0  0  0  0  0  0  0
    2.7966   -0.0786   -0.5574 H   0  0  0  1  0  0  0  0  0  0  0  0
    2.0584   -2.3322   -0.7083 H   0  0  0  1  0  0  0  0  0  0  0  0
    2.1688   -5.3245   -0.6227 H   0  0  0  1  0  0  0  0  0  0  0  0
   -1.9235   -3.0045    2.0616 H   0  0  0  1  0  0  0  0  0  0  0  0
   -1.2642   -5.7120    1.7062 H   0  0  0  1  0  0  0  0  0  0  0  0
    0.6086   -7.0237    0.5569 H   0  0  0  1  0  0  0  0  0  0  0  0
   -1.2022   -0.7753    1.4372 H   0  0  0  1  0  0  0  0  0  0  0  0
  1  2  1  0  0  0  0
  1  9  1  0  0  0  0
  1 12  1  0  0  0  0
  1 13  1  0  0  0  0
  2 14  1  0  0  0  0
  3  4  1  0  0  0  0
  3  5  2  0  0  0  0
  3  6  1  0  0  0  0
  4  7  2  0  0  0  0
  4  8  1  0  0  0  0
  5  9  1  0  0  0  0
  5 15  1  0  0  0  0
  6 10  2  0  0  0  0
  6 16  1  0  0  0  0
  7 11  1  0  0  0  0
  7 17  1  0  0  0  0
  8 10  1  0  0  0  0
  8 18  1  0  0  0  0
  9 11  2  0  0  0  0
 10 19  1  0  0  0  0
 11 20  1  0  0  0  0
M  END
> <ConfClashScore>
0 

> <ConfOneFourInteractionScore>
-0.988242 

> <ConfScore>
-0.0588285 

> <ConfScorePBest>
0.0145835 

> <ConfTolerance>
0.0229677 

$$$$
﻿1H-Indole-5-methanol
 OpenBabel06142111183D
1075-25-8 Copyright (C) 2021 ACS
 20 21  0  0  0  0  0  0  0  0999 V2000
    0.9069   -0.0234   -0.0351 C   0  0  0  1  0  0  0  0  0  0  0  0
   -0.0809    0.9114    0.3735 O   0  0  0  1  0  0  0  0  0  0  0  0
    0.8148   -3.7861    0.2167 C   0  0  0  1  0  0  0  0  0  0  0  0
   -0.3411   -3.9501    1.0075 C   0  0  0  1  0  0  0  0  0  0  0  0
    1.2131   -2.4858   -0.1220 C   0  0  0  1  0  0  0  0  0  0  0  0
    1.3257   -5.0955   -0.0585 C   0  0  0  1  0  0  0  0  0  0  0  0
   -1.0807   -2.8657    1.4682 C   0  0  0  1  0  0  0  0  0  0  0  0
   -0.5300   -5.3041    1.2015 N   0  0  0  1  0  0  0  0  0  0  0  0
    0.4790   -1.4174    0.3260 C   0  0  0  1  0  0  0  0  0  0  0  0
    0.4920   -5.9904    0.5633 C   0  0  0  1  0  0  0  0  0  0  0  0
   -0.6623   -1.6034    1.1142 C   0  0  0  1  0  0  0  0  0  0  0  0
    1.8310    0.2013    0.4554 H   0  0  0  1  0  0  0  0  0  0  0  0
    1.0397    0.0426   -1.0947 H   0  0  0  1  0  0  0  0  0  0  0  0
   -0.8252    0.8763   -0.2318 H   0  0  0  1  0  0  0  0  0  0  0  0
    2.0583   -2.3323   -0.7082 H   0  0  0  1  0  0  0  0  0  0  0  0
    2.1688   -5.3246   -0.6226 H   0  0  0  1  0  0  0  0  0  0  0  0
   -1.9235   -3.0046    2.0616 H   0  0  0  1  0  0  0  0  0  0  0  0
   -1.2642   -5.7121    1.7062 H   0  0  0  1  0  0  0  0  0  0  0  0
    0.6086   -7.0238    0.5569 H   0  0  0  1  0  0  0  0  0  0  0  0
   -1.2022   -0.7754    1.4372 H   0  0  0  1  0  0  0  0  0  0  0  0
  1  2  1  0  0  0  0
  1  9  1  0  0  0  0
  1 12  1  0  0  0  0
  1 13  1  0  0  0  0
  2 14  1  0  0  0  0
  3  4  1  0  0  0  0
  3  5  2  0  0  0  0
  3  6  1  0  0  0  0
  4  7  2  0  0  0  0
  4  8  1  0  0  0  0
  5  9  1  0  0  0  0
  5 15  1  0  0  0  0
  6 10  2  0  0  0  0
  6 16  1  0  0  0  0
  7 11  1  0  0  0  0
  7 17  1  0  0  0  0
  8 10  1  0  0  0  0
  8 18  1  0  0  0  0
  9 11  2  0  0  0  0
 10 19  1  0  0  0  0
 11 20  1  0  0  0  0
M  END
> <ConfClashScore>
0 

> <ConfOneFourInteractionScore>
-0.988242 

> <ConfScore>
-0.0588285 

> <ConfScorePBest>
0.0144805 

> <ConfTolerance>
0.0151122 

$$$$
﻿1H-Indole-5-methanol
 OpenBabel06142111183D
1075-25-8 Copyright (C) 2021 ACS
 20 21  0  0  0  0  0  0  0  0999 V2000
    0.9069   -0.0234   -0.0351 C   0  0  0  1  0  0  0  0  0  0  0  0
    0.0474    0.8872    0.6348 O   0  0  0  1  0  0  0  0  0  0  0  0
    0.8148   -3.7861    0.2167 C   0  0  0  1  0  0  0  0  0  0  0  0
   -0.3411   -3.9501    1.0075 C   0  0  0  1  0  0  0  0  0  0  0  0
    1.2131   -2.4858   -0.1220 C   0  0  0  1  0  0  0  0  0  0  0  0
    1.3257   -5.0955   -0.0585 C   0  0  0  1  0  0  0  0  0  0  0  0
   -1.0807   -2.8657    1.4682 C   0  0  0  1  0  0  0  0  0  0  0  0
   -0.5300   -5.3041    1.2015 N   0  0  0  1  0  0  0  0  0  0  0  0
    0.4790   -1.4174    0.3260 C   0  0  0  1  0  0  0  0  0  0  0  0
    0.4920   -5.9904    0.5633 C   0  0  0  1  0  0  0  0  0  0  0  0
   -0.6623   -1.6034    1.1142 C   0  0  0  1  0  0  0  0  0  0  0  0
    1.9184    0.1375    0.2747 H   0  0  0  1  0  0  0  0  0  0  0  0
    0.8307    0.1170   -1.0931 H   0  0  0  1  0  0  0  0  0  0  0  0
   -0.6971    1.1012    0.0679 H   0  0  0  1  0  0  0  0  0  0  0  0
    2.0583   -2.3323   -0.7082 H   0  0  0  1  0  0  0  0  0  0  0  0
    2.1688   -5.3246   -0.6226 H   0  0  0  1  0  0  0  0  0  0  0  0
   -1.9235   -3.0046    2.0616 H   0  0  0  1  0  0  0  0  0  0  0  0
   -1.2642   -5.7121    1.7062 H   0  0  0  1  0  0  0  0  0  0  0  0
    0.6086   -7.0238    0.5569 H   0  0  0  1  0  0  0  0  0  0  0  0
   -1.2022   -0.7754    1.4372 H   0  0  0  1  0  0  0  0  0  0  0  0
  1  2  1  0  0  0  0
  1  9  1  0  0  0  0
  1 12  1  0  0  0  0
  1 13  1  0  0  0  0
  2 14  1  0  0  0  0
  3  4  1  0  0  0  0
  3  5  2  0  0  0  0
  3  6  1  0  0  0  0
  4  7  2  0  0  0  0
  4  8  1  0  0  0  0
  5  9  1  0  0  0  0
  5 15  1  0  0  0  0
  6 10  2  0  0  0  0
  6 16  1  0  0  0  0
  7 11  1  0  0  0  0
  7 17  1  0  0  0  0
  8 10  1  0  0  0  0
  8 18  1  0  0  0  0
  9 11  2  0  0  0  0
 10 19  1  0  0  0  0
 11 20  1  0  0  0  0
M  END
> <ConfClashScore>
0 

> <ConfOneFourInteractionScore>
-0.988242 

> <ConfScore>
-0.0588285 

> <ConfScorePBest>
0.0143775 

> <ConfTolerance>
0.0202577 

$$$$
﻿1H-Indole-5-methanol
 OpenBabel06142111183D
1075-25-8 Copyright (C) 2021 ACS
 20 21  0  0  0  0  0  0  0  0999 V2000
    0.8714    0.0060   -0.0123 C   0  0  0  1  0  0  0  0  0  0  0  0
   -0.1768    0.8934    0.3533 O   0  0  0  1  0  0  0  0  0  0  0  0
    0.8172   -3.7899    0.2153 C   0  0  0  1  0  0  0  0  0  0  0  0
   -0.3391   -3.9507    1.0061 C   0  0  0  1  0  0  0  0  0  0  0  0
    1.2180   -2.4908   -0.1251 C   0  0  0  1  0  0  0  0  0  0  0  0
    1.3257   -5.1007   -0.0582 C   0  0  0  1  0  0  0  0  0  0  0  0
   -1.0767   -2.8643    1.4654 C   0  0  0  1  0  0  0  0  0  0  0  0
   -0.5306   -5.3041    1.2019 N   0  0  0  1  0  0  0  0  0  0  0  0
    0.4859   -1.4205    0.3215 C   0  0  0  1  0  0  0  0  0  0  0  0
    0.4902   -5.9932    0.5647 C   0  0  0  1  0  0  0  0  0  0  0  0
   -0.6558   -1.6033    1.1098 C   0  0  0  1  0  0  0  0  0  0  0  0
    1.7595    0.2672    0.5243 H   0  0  0  1  0  0  0  0  0  0  0  0
    1.0527    0.0866   -1.0638 H   0  0  0  1  0  0  0  0  0  0  0  0
   -0.8726    0.8569   -0.3071 H   0  0  0  1  0  0  0  0  0  0  0  0
    2.0636   -2.3396   -0.7114 H   0  0  0  1  0  0  0  0  0  0  0  0
    2.1684   -5.3321   -0.6219 H   0  0  0  1  0  0  0  0  0  0  0  0
   -1.9198   -3.0008    2.0588 H   0  0  0  1  0  0  0  0  0  0  0  0
   -1.2656   -5.7101    1.7071 H   0  0  0  1  0  0  0  0  0  0  0  0
    0.6048   -7.0268    0.5597 H   0  0  0  1  0  0  0  0  0  0  0  0
   -1.1943   -0.7738    1.4317 H   0  0  0  1  0  0  0  0  0  0  0  0
  1  2  1  0  0  0  0
  1  9  1  0  0  0  0
  1 12  1  0  0  0  0
  1 13  1  0  0  0  0
  2 14  1  0  0  0  0
  3  4  1  0  0  0  0
  3  5  2  0  0  0  0
  3  6  1  0  0  0  0
  4  7  2  0  0  0  0
  4  8  1  0  0  0  0
  5  9  1  0  0  0  0
  5 15  1  0  0  0  0
  6 10  2  0  0  0  0
  6 16  1  0  0  0  0
  7 11  1  0  0  0  0
  7 17  1  0  0  0  0
  8 10  1  0  0  0  0
  8 18  1  0  0  0  0
  9 11  2  0  0  0  0
 10 19  1  0  0  0  0
 11 20  1  0  0  0  0
M  END
> <ConfClashScore>
0 

> <ConfOneFourInteractionScore>
-0.988242 

> <ConfScore>
-0.0588285 

> <ConfScorePBest>
0.0142745 

> <ConfTolerance>
0.0280227 

$$$$
﻿1H-Indole-5-methanol
 OpenBabel06142111183D
1075-25-8 Copyright (C) 2021 ACS
 20 21  0  0  0  0  0  0  0  0999 V2000
    0.9065   -0.0247   -0.0347 C   0  0  0  1  0  0  0  0  0  0  0  0
    2.1472   -0.0587   -0.7273 O   0  0  0  1  0  0  0  0  0  0  0  0
    0.8148   -3.7860    0.2167 C   0  0  0  1  0  0  0  0  0  0  0  0
   -0.3411   -3.9500    1.0075 C   0  0  0  1  0  0  0  0  0  0  0  0
    1.2132   -2.4857   -0.1220 C   0  0  0  1  0  0  0  0  0  0  0  0
    1.3257   -5.0954   -0.0585 C   0  0  0  1  0  0  0  0  0  0  0  0
   -1.0807   -2.8656    1.4682 C   0  0  0  1  0  0  0  0  0  0  0  0
   -0.5300   -5.3040    1.2014 N   0  0  0  1  0  0  0  0  0  0  0  0
    0.4791   -1.4174    0.3260 C   0  0  0  1  0  0  0  0  0  0  0  0
    0.4920   -5.9903    0.5633 C   0  0  0  1  0  0  0  0  0  0  0  0
   -0.6622   -1.6033    1.1142 C   0  0  0  1  0  0  0  0  0  0  0  0
    0.1635    0.4222   -0.6617 H   0  0  0  1  0  0  0  0  0  0  0  0
    1.0157    0.5544    0.8583 H   0  0  0  1  0  0  0  0  0  0  0  0
    2.8644   -0.1497   -0.0957 H   0  0  0  1  0  0  0  0  0  0  0  0
    2.0584   -2.3322   -0.7083 H   0  0  0  1  0  0  0  0  0  0  0  0
    2.1688   -5.3245   -0.6227 H   0  0  0  1  0  0  0  0  0  0  0  0
   -1.9235   -3.0045    2.0616 H   0  0  0  1  0  0  0  0  0  0  0  0
   -1.2642   -5.7120    1.7062 H   0  0  0  1  0  0  0  0  0  0  0  0
    0.6086   -7.0237    0.5569 H   0  0  0  1  0  0  0  0  0  0  0  0
   -1.2022   -0.7753    1.4372 H   0  0  0  1  0  0  0  0  0  0  0  0
  1  2  1  0  0  0  0
  1  9  1  0  0  0  0
  1 12  1  0  0  0  0
  1 13  1  0  0  0  0
  2 14  1  0  0  0  0
  3  4  1  0  0  0  0
  3  5  2  0  0  0  0
  3  6  1  0  0  0  0
  4  7  2  0  0  0  0
  4  8  1  0  0  0  0
  5  9  1  0  0  0  0
  5 15  1  0  0  0  0
  6 10  2  0  0  0  0
  6 16  1  0  0  0  0
  7 11  1  0  0  0  0
  7 17  1  0  0  0  0
  8 10  1  0  0  0  0
  8 18  1  0  0  0  0
  9 11  2  0  0  0  0
 10 19  1  0  0  0  0
 11 20  1  0  0  0  0
M  END
> <ConfClashScore>
0 

> <ConfOneFourInteractionScore>
-0.988242 

> <ConfScore>
-0.0588285 

> <ConfScorePBest>
0.0141715 

> <ConfTolerance>
0.0130649 

$$$$
﻿1H-Indole-5-methanol
 OpenBabel06142111183D
1075-25-8 Copyright (C) 2021 ACS
 20 21  0  0  0  0  0  0  0  0999 V2000
    0.9072   -0.0225   -0.0353 C   0  0  0  1  0  0  0  0  0  0  0  0
    0.0676    0.9270    0.6052 O   0  0  0  1  0  0  0  0  0  0  0  0
    0.8148   -3.7862    0.2167 C   0  0  0  1  0  0  0  0  0  0  0  0
   -0.3411   -3.9501    1.0075 C   0  0  0  1  0  0  0  0  0  0  0  0
    1.2131   -2.4858   -0.1220 C   0  0  0  1  0  0  0  0  0  0  0  0
    1.3257   -5.0956   -0.0585 C   0  0  0  1  0  0  0  0  0  0  0  0
   -1.0808   -2.8657    1.4682 C   0  0  0  1  0  0  0  0  0  0  0  0
   -0.5300   -5.3041    1.2015 N   0  0  0  1  0  0  0  0  0  0  0  0
    0.4790   -1.4175    0.3261 C   0  0  0  1  0  0  0  0  0  0  0  0
    0.4920   -5.9905    0.5633 C   0  0  0  1  0  0  0  0  0  0  0  0
   -0.6623   -1.6035    1.1142 C   0  0  0  1  0  0  0  0  0  0  0  0
    1.9183    0.1300    0.2797 H   0  0  0  1  0  0  0  0  0  0  0  0
    0.8404    0.1046   -1.0956 H   0  0  0  1  0  0  0  0  0  0  0  0
   -0.7143    1.0769    0.0687 H   0  0  0  1  0  0  0  0  0  0  0  0
    2.0583   -2.3323   -0.7082 H   0  0  0  1  0  0  0  0  0  0  0  0
    2.1688   -5.3246   -0.6226 H   0  0  0  1  0  0  0  0  0  0  0  0
   -1.9235   -3.0046    2.0616 H   0  0  0  1  0  0  0  0  0  0  0  0
   -1.2642   -5.7122    1.7062 H   0  0  0  1  0  0  0  0  0  0  0  0
    0.6086   -7.0239    0.5569 H   0  0  0  1  0  0  0  0  0  0  0  0
   -1.2023   -0.7754    1.4372 H   0  0  0  1  0  0  0  0  0  0  0  0
  1  2  1  0  0  0  0
  1  9  1  0  0  0  0
  1 12  1  0  0  0  0
  1 13  1  0  0  0  0
  2 14  1  0  0  0  0
  3  4  1  0  0  0  0
  3  5  2  0  0  0  0
  3  6  1  0  0  0  0
  4  7  2  0  0  0  0
  4  8  1  0  0  0  0
  5  9  1  0  0  0  0
  5 15  1  0  0  0  0
  6 10  2  0  0  0  0
  6 16  1  0  0  0  0
  7 11  1  0  0  0  0
  7 17  1  0  0  0  0
  8 10  1  0  0  0  0
  8 18  1  0  0  0  0
  9 11  2  0  0  0  0
 10 19  1  0  0  0  0
 11 20  1  0  0  0  0
M  END
> <ConfClashScore>
0 

> <ConfOneFourInteractionScore>
-0.988242 

> <ConfScore>
-0.0588285 

> <ConfScorePBest>
0.0140685 

> <ConfTolerance>
0.0242555 

$$$$
﻿1H-Indole-5-methanol
 OpenBabel06142111183D
1075-25-8 Copyright (C) 2021 ACS
 20 21  0  0  0  0  0  0  0  0999 V2000
    0.8438   -0.0036   -0.0776 C   0  0  0  1  0  0  0  0  0  0  0  0
    2.1018    0.0149   -0.7362 O   0  0  0  1  0  0  0  0  0  0  0  0
    0.8206   -3.7886    0.2218 C   0  0  0  1  0  0  0  0  0  0  0  0
   -0.3388   -3.9505    1.0079 C   0  0  0  1  0  0  0  0  0  0  0  0
    1.2258   -2.4887   -0.1104 C   0  0  0  1  0  0  0  0  0  0  0  0
    1.3267   -5.0992   -0.0566 C   0  0  0  1  0  0  0  0  0  0  0  0
   -1.0753   -2.8647    1.4703 C   0  0  0  1  0  0  0  0  0  0  0  0
   -0.5343   -5.3044    1.1960 N   0  0  0  1  0  0  0  0  0  0  0  0
    0.4948   -1.4189    0.3392 C   0  0  0  1  0  0  0  0  0  0  0  0
    0.4869   -5.9928    0.5587 C   0  0  0  1  0  0  0  0  0  0  0  0
   -0.6501   -1.6029    1.1227 C   0  0  0  1  0  0  0  0  0  0  0  0
    0.0909    0.3653   -0.7424 H   0  0  0  1  0  0  0  0  0  0  0  0
    0.8899    0.6198    0.7909 H   0  0  0  1  0  0  0  0  0  0  0  0
    2.7915    0.2297   -0.1038 H   0  0  0  1  0  0  0  0  0  0  0  0
    2.0737   -2.3366   -0.6931 H   0  0  0  1  0  0  0  0  0  0  0  0
    2.1708   -5.3297   -0.6188 H   0  0  0  1  0  0  0  0  0  0  0  0
   -1.9207   -3.0022    2.0602 H   0  0  0  1  0  0  0  0  0  0  0  0
   -1.2720   -5.7112    1.6966 H   0  0  0  1  0  0  0  0  0  0  0  0
    0.5990   -7.0267    0.5488 H   0  0  0  1  0  0  0  0  0  0  0  0
   -1.1875   -0.7738    1.4470 H   0  0  0  1  0  0  0  0  0  0  0  0
  1  2  1  0  0  0  0
  1  9  1  0  0  0  0
  1 12  1  0  0  0  0
  1 13  1  0  0  0  0
  2 14  1  0  0  0  0
  3  4  1  0  0  0  0
  3  5  2  0  0  0  0
  3  6  1  0  0  0  0
  4  7  2  0  0  0  0
  4  8  1  0  0  0  0
  5  9  1  0  0  0  0
  5 15  1  0  0  0  0
  6 10  2  0  0  0  0
  6 16  1  0  0  0  0
  7 11  1  0  0  0  0
  7 17  1  0  0  0  0
  8 10  1  0  0  0  0
  8 18  1  0  0  0  0
  9 11  2  0  0  0  0
 10 19  1  0  0  0  0
 11 20  1  0  0  0  0
M  END
> <ConfClashScore>
0 

> <ConfOneFourInteractionScore>
-0.988242 

> <ConfScore>
-0.0588285 

> <ConfScorePBest>
0.0139655 

> <ConfTolerance>
0.027667 

$$$$
﻿1H-Indole-5-methanol
 OpenBabel06142111183D
1075-25-8 Copyright (C) 2021 ACS
 20 21  0  0  0  0  0  0  0  0999 V2000
    0.9456   -0.0316   -0.0611 C   0  0  0  1  0  0  0  0  0  0  0  0
    0.0807    0.9168    0.5465 O   0  0  0  1  0  0  0  0  0  0  0  0
    0.8122   -3.7837    0.2184 C   0  0  0  1  0  0  0  0  0  0  0  0
   -0.3433   -3.9508    1.0090 C   0  0  0  1  0  0  0  0  0  0  0  0
    1.2081   -2.4822   -0.1188 C   0  0  0  1  0  0  0  0  0  0  0  0
    1.3255   -5.0919   -0.0585 C   0  0  0  1  0  0  0  0  0  0  0  0
   -1.0849   -2.8684    1.4712 C   0  0  0  1  0  0  0  0  0  0  0  0
   -0.5297   -5.3054    1.2013 N   0  0  0  1  0  0  0  0  0  0  0  0
    0.4721   -1.4158    0.3307 C   0  0  0  1  0  0  0  0  0  0  0  0
    0.4935   -5.9891    0.5622 C   0  0  0  1  0  0  0  0  0  0  0  0
   -0.6688   -1.6049    1.1188 C   0  0  0  1  0  0  0  0  0  0  0  0
    1.9479    0.1196    0.2816 H   0  0  0  1  0  0  0  0  0  0  0  0
    0.9119    0.0759   -1.1251 H   0  0  0  1  0  0  0  0  0  0  0  0
   -0.6143    1.1579   -0.0703 H   0  0  0  1  0  0  0  0  0  0  0  0
    2.0529   -2.3264   -0.7049 H   0  0  0  1  0  0  0  0  0  0  0  0
    2.1690   -5.3186   -0.6231 H   0  0  0  1  0  0  0  0  0  0  0  0
   -1.9273   -3.0096    2.0645 H   0  0  0  1  0  0  0  0  0  0  0  0
   -1.2631   -5.7155    1.7057 H   0  0  0  1  0  0  0  0  0  0  0  0
    0.6120   -7.0223    0.5545 H   0  0  0  1  0  0  0  0  0  0  0  0
   -1.2103   -0.7783    1.4429 H   0  0  0  1  0  0  0  0  0  0  0  0
  1  2  1  0  0  0  0
  1  9  1  0  0  0  0
  1 12  1  0  0  0  0
  1 13  1  0  0  0  0
  2 14  1  0  0  0  0
  3  4  1  0  0  0  0
  3  5  2  0  0  0  0
  3  6  1  0  0  0  0
  4  7  2  0  0  0  0
  4  8  1  0  0  0  0
  5  9  1  0  0  0  0
  5 15  1  0  0  0  0
  6 10  2  0  0  0  0
  6 16  1  0  0  0  0
  7 11  1  0  0  0  0
  7 17  1  0  0  0  0
  8 10  1  0  0  0  0
  8 18  1  0  0  0  0
  9 11  2  0  0  0  0
 10 19  1  0  0  0  0
 11 20  1  0  0  0  0
M  END
> <ConfClashScore>
0 

> <ConfOneFourInteractionScore>
-0.988242 

> <ConfScore>
-0.0588285 

> <ConfScorePBest>
0.0138625 

> <ConfTolerance>
0.0288345 

$$$$
﻿1H-Indole-5-methanol
 OpenBabel06142111183D
1075-25-8 Copyright (C) 2021 ACS
 20 21  0  0  0  0  0  0  0  0999 V2000
    0.8714    0.0060   -0.0123 C   0  0  0  1  0  0  0  0  0  0  0  0
    2.1602    0.0364   -0.6080 O   0  0  0  1  0  0  0  0  0  0  0  0
    0.8172   -3.7899    0.2153 C   0  0  0  1  0  0  0  0  0  0  0  0
   -0.3391   -3.9507    1.0061 C   0  0  0  1  0  0  0  0  0  0  0  0
    1.2180   -2.4908   -0.1251 C   0  0  0  1  0  0  0  0  0  0  0  0
    1.3257   -5.1007   -0.0582 C   0  0  0  1  0  0  0  0  0  0  0  0
   -1.0767   -2.8643    1.4654 C   0  0  0  1  0  0  0  0  0  0  0  0
   -0.5306   -5.3041    1.2019 N   0  0  0  1  0  0  0  0  0  0  0  0
    0.4859   -1.4205    0.3215 C   0  0  0  1  0  0  0  0  0  0  0  0
    0.4902   -5.9932    0.5647 C   0  0  0  1  0  0  0  0  0  0  0  0
   -0.6558   -1.6033    1.1098 C   0  0  0  1  0  0  0  0  0  0  0  0
    0.1564    0.4152   -0.6950 H   0  0  0  1  0  0  0  0  0  0  0  0
    0.8826    0.5887    0.8850 H   0  0  0  1  0  0  0  0  0  0  0  0
    2.8271    0.1327    0.0757 H   0  0  0  1  0  0  0  0  0  0  0  0
    2.0636   -2.3396   -0.7114 H   0  0  0  1  0  0  0  0  0  0  0  0
    2.1684   -5.3321   -0.6219 H   0  0  0  1  0  0  0  0  0  0  0  0
   -1.9198   -3.0008    2.0588 H   0  0  0  1  0  0  0  0  0  0  0  0
   -1.2656   -5.7101    1.7071 H   0  0  0  1  0  0  0  0  0  0  0  0
    0.6048   -7.0268    0.5597 H   0  0  0  1  0  0  0  0  0  0  0  0
   -1.1943   -0.7738    1.4317 H   0  0  0  1  0  0  0  0  0  0  0  0
  1  2  1  0  0  0  0
  1  9  1  0  0  0  0
  1 12  1  0  0  0  0
  1 13  1  0  0  0  0
  2 14  1  0  0  0  0
  3  4  1  0  0  0  0
  3  5  2  0  0  0  0
  3  6  1  0  0  0  0
  4  7  2  0  0  0  0
  4  8  1  0  0  0  0
  5  9  1  0  0  0  0
  5 15  1  0  0  0  0
  6 10  2  0  0  0  0
  6 16  1  0  0  0  0
  7 11  1  0  0  0  0
  7 17  1  0  0  0  0
  8 10  1  0  0  0  0
  8 18  1  0  0  0  0
  9 11  2  0  0  0  0
 10 19  1  0  0  0  0
 11 20  1  0  0  0  0
M  END
> <ConfClashScore>
0 

> <ConfOneFourInteractionScore>
-0.988242 

> <ConfScore>
-0.0588285 

> <ConfScorePBest>
0.0137595 

> <ConfTolerance>
0.0280149 

$$$$
﻿1H-Indole-5-methanol
 OpenBabel06142111183D
1075-25-8 Copyright (C) 2021 ACS
 20 21  0  0  0  0  0  0  0  0999 V2000
    0.8714    0.0060   -0.0123 C   0  0  0  1  0  0  0  0  0  0  0  0
   -0.1175    0.8388    0.6201 O   0  0  0  1  0  0  0  0  0  0  0  0
    0.8172   -3.7899    0.2153 C   0  0  0  1  0  0  0  0  0  0  0  0
   -0.3391   -3.9507    1.0061 C   0  0  0  1  0  0  0  0  0  0  0  0
    1.2180   -2.4908   -0.1251 C   0  0  0  1  0  0  0  0  0  0  0  0
    1.3257   -5.1007   -0.0582 C   0  0  0  1  0  0  0  0  0  0  0  0
   -1.0767   -2.8643    1.4654 C   0  0  0  1  0  0  0  0  0  0  0  0
   -0.5306   -5.3041    1.2019 N   0  0  0  1  0  0  0  0  0  0  0  0
    0.4859   -1.4205    0.3215 C   0  0  0  1  0  0  0  0  0  0  0  0
    0.4902   -5.9932    0.5647 C   0  0  0  1  0  0  0  0  0  0  0  0
   -0.6558   -1.6033    1.1098 C   0  0  0  1  0  0  0  0  0  0  0  0
    1.8454    0.2278    0.3712 H   0  0  0  1  0  0  0  0  0  0  0  0
    0.8620    0.1559   -1.0717 H   0  0  0  1  0  0  0  0  0  0  0  0
   -0.7418    1.1515   -0.0387 H   0  0  0  1  0  0  0  0  0  0  0  0
    2.0636   -2.3396   -0.7114 H   0  0  0  1  0  0  0  0  0  0  0  0
    2.1684   -5.3321   -0.6219 H   0  0  0  1  0  0  0  0  0  0  0  0
   -1.9198   -3.0008    2.0588 H   0  0  0  1  0  0  0  0  0  0  0  0
   -1.2656   -5.7101    1.7071 H   0  0  0  1  0  0  0  0  0  0  0  0
    0.6048   -7.0268    0.5597 H   0  0  0  1  0  0  0  0  0  0  0  0
   -1.1943   -0.7738    1.4317 H   0  0  0  1  0  0  0  0  0  0  0  0
  1  2  1  0  0  0  0
  1  9  1  0  0  0  0
  1 12  1  0  0  0  0
  1 13  1  0  0  0  0
  2 14  1  0  0  0  0
  3  4  1  0  0  0  0
  3  5  2  0  0  0  0
  3  6  1  0  0  0  0
  4  7  2  0  0  0  0
  4  8  1  0  0  0  0
  5  9  1  0  0  0  0
  5 15  1  0  0  0  0
  6 10  2  0  0  0  0
  6 16  1  0  0  0  0
  7 11  1  0  0  0  0
  7 17  1  0  0  0  0
  8 10  1  0  0  0  0
  8 18  1  0  0  0  0
  9 11  2  0  0  0  0
 10 19  1  0  0  0  0
 11 20  1  0  0  0  0
M  END
> <ConfClashScore>
0 

> <ConfOneFourInteractionScore>
-0.988242 

> <ConfScore>
-0.0588285 

> <ConfScorePBest>
0.0136565 

> <ConfTolerance>
0.0407101 

$$$$
﻿1H-Indole-5-methanol
 OpenBabel06142111183D
1075-25-8 Copyright (C) 2021 ACS
 20 21  0  0  0  0  0  0  0  0999 V2000
    0.8714    0.0060   -0.0123 C   0  0  0  1  0  0  0  0  0  0  0  0
    1.9299    0.0165   -0.9591 O   0  0  0  1  0  0  0  0  0  0  0  0
    0.8172   -3.7899    0.2153 C   0  0  0  1  0  0  0  0  0  0  0  0
   -0.3391   -3.9507    1.0061 C   0  0  0  1  0  0  0  0  0  0  0  0
    1.2180   -2.4908   -0.1251 C   0  0  0  1  0  0  0  0  0  0  0  0
    1.3257   -5.1007   -0.0582 C   0  0  0  1  0  0  0  0  0  0  0  0
   -1.0767   -2.8643    1.4654 C   0  0  0  1  0  0  0  0  0  0  0  0
   -0.5306   -5.3041    1.2019 N   0  0  0  1  0  0  0  0  0  0  0  0
    0.4859   -1.4205    0.3215 C   0  0  0  1  0  0  0  0  0  0  0  0
    0.4902   -5.9932    0.5647 C   0  0  0  1  0  0  0  0  0  0  0  0
   -0.6558   -1.6033    1.1098 C   0  0  0  1  0  0  0  0  0  0  0  0
    0.0243    0.5145   -0.4231 H   0  0  0  1  0  0  0  0  0  0  0  0
    1.1894    0.5044    0.8795 H   0  0  0  1  0  0  0  0  0  0  0  0
    2.7716   -0.0228   -0.4991 H   0  0  0  1  0  0  0  0  0  0  0  0
    2.0636   -2.3396   -0.7114 H   0  0  0  1  0  0  0  0  0  0  0  0
    2.1684   -5.3321   -0.6219 H   0  0  0  1  0  0  0  0  0  0  0  0
   -1.9198   -3.0008    2.0588 H   0  0  0  1  0  0  0  0  0  0  0  0
   -1.2656   -5.7101    1.7071 H   0  0  0  1  0  0  0  0  0  0  0  0
    0.6048   -7.0268    0.5597 H   0  0  0  1  0  0  0  0  0  0  0  0
   -1.1943   -0.7738    1.4317 H   0  0  0  1  0  0  0  0  0  0  0  0
  1  2  1  0  0  0  0
  1  9  1  0  0  0  0
  1 12  1  0  0  0  0
  1 13  1  0  0  0  0
  2 14  1  0  0  0  0
  3  4  1  0  0  0  0
  3  5  2  0  0  0  0
  3  6  1  0  0  0  0
  4  7  2  0  0  0  0
  4  8  1  0  0  0  0
  5  9  1  0  0  0  0
  5 15  1  0  0  0  0
  6 10  2  0  0  0  0
  6 16  1  0  0  0  0
  7 11  1  0  0  0  0
  7 17  1  0  0  0  0
  8 10  1  0  0  0  0
  8 18  1  0  0  0  0
  9 11  2  0  0  0  0
 10 19  1  0  0  0  0
 11 20  1  0  0  0  0
M  END
> <ConfClashScore>
0 

> <ConfOneFourInteractionScore>
-0.988242 

> <ConfScore>
-0.0588285 

> <ConfScorePBest>
0.0135535 

> <ConfTolerance>
0.0347365 

$$$$
﻿1H-Indole-5-methanol
 OpenBabel06142111183D
1075-25-8 Copyright (C) 2021 ACS
 20 21  0  0  0  0  0  0  0  0999 V2000
    0.9417   -0.0092    0.0236 C   0  0  0  1  0  0  0  0  0  0  0  0
    2.0884    0.0324   -0.8132 O   0  0  0  1  0  0  0  0  0  0  0  0
    0.8109   -3.7875    0.2106 C   0  0  0  1  0  0  0  0  0  0  0  0
   -0.3419   -3.9507    1.0060 C   0  0  0  1  0  0  0  0  0  0  0  0
    1.2046   -2.4877   -0.1358 C   0  0  0  1  0  0  0  0  0  0  0  0
    1.3245   -5.0968   -0.0599 C   0  0  0  1  0  0  0  0  0  0  0  0
   -1.0829   -2.8661    1.4639 C   0  0  0  1  0  0  0  0  0  0  0  0
   -0.5263   -5.3043    1.2073 N   0  0  0  1  0  0  0  0  0  0  0  0
    0.4690   -1.4192    0.3095 C   0  0  0  1  0  0  0  0  0  0  0  0
    0.4954   -5.9909    0.5690 C   0  0  0  1  0  0  0  0  0  0  0  0
   -0.6691   -1.6045    1.1024 C   0  0  0  1  0  0  0  0  0  0  0  0
    0.1492    0.5251   -0.4572 H   0  0  0  1  0  0  0  0  0  0  0  0
    1.1802    0.4652    0.9525 H   0  0  0  1  0  0  0  0  0  0  0  0
    2.8810   -0.0022   -0.2727 H   0  0  0  1  0  0  0  0  0  0  0  0
    2.0474   -2.3348   -0.7256 H   0  0  0  1  0  0  0  0  0  0  0  0
    2.1664   -5.3263   -0.6258 H   0  0  0  1  0  0  0  0  0  0  0  0
   -1.9233   -3.0044    2.0608 H   0  0  0  1  0  0  0  0  0  0  0  0
   -1.2577   -5.7119    1.7165 H   0  0  0  1  0  0  0  0  0  0  0  0
    0.6148   -7.0240    0.5673 H   0  0  0  1  0  0  0  0  0  0  0  0
   -1.2103   -0.7763    1.4231 H   0  0  0  1  0  0  0  0  0  0  0  0
  1  2  1  0  0  0  0
  1  9  1  0  0  0  0
  1 12  1  0  0  0  0
  1 13  1  0  0  0  0
  2 14  1  0  0  0  0
  3  4  1  0  0  0  0
  3  5  2  0  0  0  0
  3  6  1  0  0  0  0
  4  7  2  0  0  0  0
  4  8  1  0  0  0  0
  5  9  1  0  0  0  0
  5 15  1  0  0  0  0
  6 10  2  0  0  0  0
  6 16  1  0  0  0  0
  7 11  1  0  0  0  0
  7 17  1  0  0  0  0
  8 10  1  0  0  0  0
  8 18  1  0  0  0  0
  9 11  2  0  0  0  0
 10 19  1  0  0  0  0
 11 20  1  0  0  0  0
M  END
> <ConfClashScore>
0 

> <ConfOneFourInteractionScore>
-0.988242 

> <ConfScore>
-0.0588285 

> <ConfScorePBest>
0.0134505 

> <ConfTolerance>
0.0277903 

$$$$
﻿1H-Indole-5-methanol
 OpenBabel06142111183D
1075-25-8 Copyright (C) 2021 ACS
 20 21  0  0  0  0  0  0  0  0999 V2000
    0.9456   -0.0316   -0.0611 C   0  0  0  1  0  0  0  0  0  0  0  0
    0.0473    0.9947    0.3346 O   0  0  0  1  0  0  0  0  0  0  0  0
    0.8122   -3.7837    0.2184 C   0  0  0  1  0  0  0  0  0  0  0  0
   -0.3433   -3.9508    1.0090 C   0  0  0  1  0  0  0  0  0  0  0  0
    1.2081   -2.4822   -0.1188 C   0  0  0  1  0  0  0  0  0  0  0  0
    1.3255   -5.0919   -0.0585 C   0  0  0  1  0  0  0  0  0  0  0  0
   -1.0849   -2.8684    1.4712 C   0  0  0  1  0  0  0  0  0  0  0  0
   -0.5297   -5.3054    1.2013 N   0  0  0  1  0  0  0  0  0  0  0  0
    0.4721   -1.4158    0.3307 C   0  0  0  1  0  0  0  0  0  0  0  0
    0.4935   -5.9891    0.5622 C   0  0  0  1  0  0  0  0  0  0  0  0
   -0.6688   -1.6049    1.1188 C   0  0  0  1  0  0  0  0  0  0  0  0
    1.8936    0.1481    0.4016 H   0  0  0  1  0  0  0  0  0  0  0  0
    1.0552    0.0028   -1.1249 H   0  0  0  1  0  0  0  0  0  0  0  0
   -0.4629    1.2844   -0.4252 H   0  0  0  1  0  0  0  0  0  0  0  0
    2.0529   -2.3264   -0.7049 H   0  0  0  1  0  0  0  0  0  0  0  0
    2.1690   -5.3186   -0.6231 H   0  0  0  1  0  0  0  0  0  0  0  0
   -1.9273   -3.0096    2.0645 H   0  0  0  1  0  0  0  0  0  0  0  0
   -1.2631   -5.7155    1.7057 H   0  0  0  1  0  0  0  0  0  0  0  0
    0.6120   -7.0223    0.5545 H   0  0  0  1  0  0  0  0  0  0  0  0
   -1.2103   -0.7783    1.4429 H   0  0  0  1  0  0  0  0  0  0  0  0
  1  2  1  0  0  0  0
  1  9  1  0  0  0  0
  1 12  1  0  0  0  0
  1 13  1  0  0  0  0
  2 14  1  0  0  0  0
  3  4  1  0  0  0  0
  3  5  2  0  0  0  0
  3  6  1  0  0  0  0
  4  7  2  0  0  0  0
  4  8  1  0  0  0  0
  5  9  1  0  0  0  0
  5 15  1  0  0  0  0
  6 10  2  0  0  0  0
  6 16  1  0  0  0  0
  7 11  1  0  0  0  0
  7 17  1  0  0  0  0
  8 10  1  0  0  0  0
  8 18  1  0  0  0  0
  9 11  2  0  0  0  0
 10 19  1  0  0  0  0
 11 20  1  0  0  0  0
M  END
> <ConfClashScore>
0 

> <ConfOneFourInteractionScore>
-0.988242 

> <ConfScore>
-0.0588285 

> <ConfScorePBest>
0.0133475 

> <ConfTolerance>
0.0294606 

$$$$
﻿1H-Indole-5-methanol
 OpenBabel06142111183D
1075-25-8 Copyright (C) 2021 ACS
 20 21  0  0  0  0  0  0  0  0999 V2000
    0.9065   -0.0247   -0.0347 C   0  0  0  1  0  0  0  0  0  0  0  0
    2.0620   -0.0672   -0.8593 O   0  0  0  1  0  0  0  0  0  0  0  0
    0.8148   -3.7860    0.2167 C   0  0  0  1  0  0  0  0  0  0  0  0
   -0.3411   -3.9500    1.0075 C   0  0  0  1  0  0  0  0  0  0  0  0
    1.2132   -2.4857   -0.1220 C   0  0  0  1  0  0  0  0  0  0  0  0
    1.3257   -5.0954   -0.0585 C   0  0  0  1  0  0  0  0  0  0  0  0
   -1.0807   -2.8656    1.4682 C   0  0  0  1  0  0  0  0  0  0  0  0
   -0.5300   -5.3040    1.2014 N   0  0  0  1  0  0  0  0  0  0  0  0
    0.4791   -1.4174    0.3260 C   0  0  0  1  0  0  0  0  0  0  0  0
    0.4920   -5.9903    0.5633 C   0  0  0  1  0  0  0  0  0  0  0  0
   -0.6622   -1.6033    1.1142 C   0  0  0  1  0  0  0  0  0  0  0  0
    0.1136    0.4634   -0.5618 H   0  0  0  1  0  0  0  0  0  0  0  0
    1.1295    0.5196    0.8590 H   0  0  0  1  0  0  0  0  0  0  0  0
    2.8444   -0.1559   -0.3101 H   0  0  0  1  0  0  0  0  0  0  0  0
    2.0584   -2.3322   -0.7083 H   0  0  0  1  0  0  0  0  0  0  0  0
    2.1688   -5.3245   -0.6227 H   0  0  0  1  0  0  0  0  0  0  0  0
   -1.9235   -3.0045    2.0616 H   0  0  0  1  0  0  0  0  0  0  0  0
   -1.2642   -5.7120    1.7062 H   0  0  0  1  0  0  0  0  0  0  0  0
    0.6086   -7.0237    0.5569 H   0  0  0  1  0  0  0  0  0  0  0  0
   -1.2022   -0.7753    1.4372 H   0  0  0  1  0  0  0  0  0  0  0  0
  1  2  1  0  0  0  0
  1  9  1  0  0  0  0
  1 12  1  0  0  0  0
  1 13  1  0  0  0  0
  2 14  1  0  0  0  0
  3  4  1  0  0  0  0
  3  5  2  0  0  0  0
  3  6  1  0  0  0  0
  4  7  2  0  0  0  0
  4  8  1  0  0  0  0
  5  9  1  0  0  0  0
  5 15  1  0  0  0  0
  6 10  2  0  0  0  0
  6 16  1  0  0  0  0
  7 11  1  0  0  0  0
  7 17  1  0  0  0  0
  8 10  1  0  0  0  0
  8 18  1  0  0  0  0
  9 11  2  0  0  0  0
 10 19  1  0  0  0  0
 11 20  1  0  0  0  0
M  END
> <ConfClashScore>
0 

> <ConfOneFourInteractionScore>
-0.988242 

> <ConfScore>
-0.0588285 

> <ConfScorePBest>
0.0132445 

> <ConfTolerance>
0.0251194 

$$$$
﻿1H-Indole-5-methanol
 OpenBabel06142111183D
1075-25-8 Copyright (C) 2021 ACS
 20 21  0  0  0  0  0  0  0  0999 V2000
    0.9101   -0.0126   -0.0378 C   0  0  0  1  0  0  0  0  0  0  0  0
    2.2172   -0.1424   -0.6259 O   0  0  0  1  0  0  0  0  0  0  0  0
    0.8146   -3.7868    0.2169 C   0  0  0  1  0  0  0  0  0  0  0  0
   -0.3413   -3.9508    1.0077 C   0  0  0  1  0  0  0  0  0  0  0  0
    1.2128   -2.4864   -0.1218 C   0  0  0  1  0  0  0  0  0  0  0  0
    1.3256   -5.0962   -0.0583 C   0  0  0  1  0  0  0  0  0  0  0  0
   -1.0810   -2.8665    1.4684 C   0  0  0  1  0  0  0  0  0  0  0  0
   -0.5301   -5.3048    1.2016 N   0  0  0  1  0  0  0  0  0  0  0  0
    0.4787   -1.4181    0.3263 C   0  0  0  1  0  0  0  0  0  0  0  0
    0.4919   -5.9911    0.5634 C   0  0  0  1  0  0  0  0  0  0  0  0
   -0.6626   -1.6042    1.1145 C   0  0  0  1  0  0  0  0  0  0  0  0
    0.2266    0.4163   -0.7404 H   0  0  0  1  0  0  0  0  0  0  0  0
    0.9549    0.6014    0.8373 H   0  0  0  1  0  0  0  0  0  0  0  0
    2.8857   -0.0686    0.0592 H   0  0  0  1  0  0  0  0  0  0  0  0
    2.0580   -2.3328   -0.7080 H   0  0  0  1  0  0  0  0  0  0  0  0
    2.1687   -5.3252   -0.6225 H   0  0  0  1  0  0  0  0  0  0  0  0
   -1.9237   -3.0054    2.0618 H   0  0  0  1  0  0  0  0  0  0  0  0
   -1.2643   -5.7129    1.7064 H   0  0  0  1  0  0  0  0  0  0  0  0
    0.6085   -7.0245    0.5570 H   0  0  0  1  0  0  0  0  0  0  0  0
   -1.2026   -0.7762    1.4375 H   0  0  0  1  0  0  0  0  0  0  0  0
  1  2  1  0  0  0  0
  1  9  1  0  0  0  0
  1 12  1  0  0  0  0
  1 13  1  0  0  0  0
  2 14  1  0  0  0  0
  3  4  1  0  0  0  0
  3  5  2  0  0  0  0
  3  6  1  0  0  0  0
  4  7  2  0  0  0  0
  4  8  1  0  0  0  0
  5  9  1  0  0  0  0
  5 15  1  0  0  0  0
  6 10  2  0  0  0  0
  6 16  1  0  0  0  0
  7 11  1  0  0  0  0
  7 17  1  0  0  0  0
  8 10  1  0  0  0  0
  8 18  1  0  0  0  0
  9 11  2  0  0  0  0
 10 19  1  0  0  0  0
 11 20  1  0  0  0  0
M  END
> <ConfClashScore>
0 

> <ConfOneFourInteractionScore>
-0.988242 

> <ConfScore>
-0.0588285 

> <ConfScorePBest>
0.0131415 

> <ConfTolerance>
0.0300475 

$$$$
﻿1H-Indole-5-methanol
 OpenBabel06142111183D
1075-25-8 Copyright (C) 2021 ACS
 20 21  0  0  0  0  0  0  0  0999 V2000
    0.8779   -0.0216   -0.0985 C   0  0  0  1  0  0  0  0  0  0  0  0
    2.0979   -0.0624   -0.8242 O   0  0  0  1  0  0  0  0  0  0  0  0
    0.8182   -3.7857    0.2231 C   0  0  0  1  0  0  0  0  0  0  0  0
   -0.3407   -3.9505    1.0092 C   0  0  0  1  0  0  0  0  0  0  0  0
    1.2211   -2.4848   -0.1078 C   0  0  0  1  0  0  0  0  0  0  0  0
    1.3266   -5.0951   -0.0568 C   0  0  0  1  0  0  0  0  0  0  0  0
   -1.0790   -2.8665    1.4729 C   0  0  0  1  0  0  0  0  0  0  0  0
   -0.5338   -5.3050    1.1959 N   0  0  0  1  0  0  0  0  0  0  0  0
    0.4883   -1.4167    0.3431 C   0  0  0  1  0  0  0  0  0  0  0  0
    0.4885   -5.9908    0.5577 C   0  0  0  1  0  0  0  0  0  0  0  0
   -0.6561   -1.6036    1.1266 C   0  0  0  1  0  0  0  0  0  0  0  0
    0.1077    0.3796   -0.7236 H   0  0  0  1  0  0  0  0  0  0  0  0
    0.9994    0.6012    0.7630 H   0  0  0  1  0  0  0  0  0  0  0  0
    2.8363   -0.0440   -0.2110 H   0  0  0  1  0  0  0  0  0  0  0  0
    2.0687   -2.3306   -0.6904 H   0  0  0  1  0  0  0  0  0  0  0  0
    2.1710   -5.3236   -0.6193 H   0  0  0  1  0  0  0  0  0  0  0  0
   -1.9241   -3.0061    2.0628 H   0  0  0  1  0  0  0  0  0  0  0  0
   -1.2708   -5.7136    1.6961 H   0  0  0  1  0  0  0  0  0  0  0  0
    0.6024   -7.0245    0.5466 H   0  0  0  1  0  0  0  0  0  0  0  0
   -1.1950   -0.7758    1.4519 H   0  0  0  1  0  0  0  0  0  0  0  0
  1  2  1  0  0  0  0
  1  9  1  0  0  0  0
  1 12  1  0  0  0  0
  1 13  1  0  0  0  0
  2 14  1  0  0  0  0
  3  4  1  0  0  0  0
  3  5  2  0  0  0  0
  3  6  1  0  0  0  0
  4  7  2  0  0  0  0
  4  8  1  0  0  0  0
  5  9  1  0  0  0  0
  5 15  1  0  0  0  0
  6 10  2  0  0  0  0
  6 16  1  0  0  0  0
  7 11  1  0  0  0  0
  7 17  1  0  0  0  0
  8 10  1  0  0  0  0
  8 18  1  0  0  0  0
  9 11  2  0  0  0  0
 10 19  1  0  0  0  0
 11 20  1  0  0  0  0
M  END
> <ConfClashScore>
0 

> <ConfOneFourInteractionScore>
-0.988242 

> <ConfScore>
-0.0588285 

> <ConfScorePBest>
0.0130385 

> <ConfTolerance>
0.058058 

$$$$
﻿1H-Indole-5-methanol
 OpenBabel06142111183D
1075-25-8 Copyright (C) 2021 ACS
 20 21  0  0  0  0  0  0  0  0999 V2000
    0.9804   -0.0512   -0.0838 C   0  0  0  1  0  0  0  0  0  0  0  0
   -0.0236    0.8931    0.3306 O   0  0  0  1  0  0  0  0  0  0  0  0
    0.8098   -3.7807    0.2198 C   0  0  0  1  0  0  0  0  0  0  0  0
   -0.3453   -3.9508    1.0104 C   0  0  0  1  0  0  0  0  0  0  0  0
    1.2034   -2.4781   -0.1158 C   0  0  0  1  0  0  0  0  0  0  0  0
    1.3254   -5.0876   -0.0587 C   0  0  0  1  0  0  0  0  0  0  0  0
   -1.0888   -2.8702    1.4740 C   0  0  0  1  0  0  0  0  0  0  0  0
   -0.5292   -5.3059    1.2011 N   0  0  0  1  0  0  0  0  0  0  0  0
    0.4655   -1.4135    0.3351 C   0  0  0  1  0  0  0  0  0  0  0  0
    0.4951   -5.9870    0.5610 C   0  0  0  1  0  0  0  0  0  0  0  0
   -0.6749   -1.6056    1.1230 C   0  0  0  1  0  0  0  0  0  0  0  0
    1.9116    0.1595    0.3992 H   0  0  0  1  0  0  0  0  0  0  0  0
    1.1118   -0.0131   -1.1450 H   0  0  0  1  0  0  0  0  0  0  0  0
   -0.5819    1.1165   -0.4178 H   0  0  0  1  0  0  0  0  0  0  0  0
    2.0479   -2.3201   -0.7018 H   0  0  0  1  0  0  0  0  0  0  0  0
    2.1692   -5.3122   -0.6236 H   0  0  0  1  0  0  0  0  0  0  0  0
   -1.9309   -3.0136    2.0672 H   0  0  0  1  0  0  0  0  0  0  0  0
   -1.2619   -5.7179    1.7050 H   0  0  0  1  0  0  0  0  0  0  0  0
    0.6154   -7.0200    0.5520 H   0  0  0  1  0  0  0  0  0  0  0  0
   -1.2178   -0.7803    1.4482 H   0  0  0  1  0  0  0  0  0  0  0  0
  1  2  1  0  0  0  0
  1  9  1  0  0  0  0
  1 12  1  0  0  0  0
  1 13  1  0  0  0  0
  2 14  1  0  0  0  0
  3  4  1  0  0  0  0
  3  5  2  0  0  0  0
  3  6  1  0  0  0  0
  4  7  2  0  0  0  0
  4  8  1  0  0  0  0
  5  9  1  0  0  0  0
  5 15  1  0  0  0  0
  6 10  2  0  0  0  0
  6 16  1  0  0  0  0
  7 11  1  0  0  0  0
  7 17  1  0  0  0  0
  8 10  1  0  0  0  0
  8 18  1  0  0  0  0
  9 11  2  0  0  0  0
 10 19  1  0  0  0  0
 11 20  1  0  0  0  0
M  END
> <ConfClashScore>
0 

> <ConfOneFourInteractionScore>
-0.988242 

> <ConfScore>
-0.0588285 

> <ConfScorePBest>
0.0129355 

> <ConfTolerance>
0.0423349 

$$$$
﻿1H-Indole-5-methanol
 OpenBabel06142111183D
1075-25-8 Copyright (C) 2021 ACS
 20 21  0  0  0  0  0  0  0  0999 V2000
    0.9456   -0.0316   -0.0611 C   0  0  0  1  0  0  0  0  0  0  0  0
    0.1680    1.0056    0.5189 O   0  0  0  1  0  0  0  0  0  0  0  0
    0.8122   -3.7837    0.2184 C   0  0  0  1  0  0  0  0  0  0  0  0
   -0.3433   -3.9508    1.0090 C   0  0  0  1  0  0  0  0  0  0  0  0
    1.2081   -2.4822   -0.1188 C   0  0  0  1  0  0  0  0  0  0  0  0
    1.3255   -5.0919   -0.0585 C   0  0  0  1  0  0  0  0  0  0  0  0
   -1.0849   -2.8684    1.4712 C   0  0  0  1  0  0  0  0  0  0  0  0
   -0.5297   -5.3054    1.2013 N   0  0  0  1  0  0  0  0  0  0  0  0
    0.4721   -1.4158    0.3307 C   0  0  0  1  0  0  0  0  0  0  0  0
    0.4935   -5.9891    0.5622 C   0  0  0  1  0  0  0  0  0  0  0  0
   -0.6688   -1.6049    1.1188 C   0  0  0  1  0  0  0  0  0  0  0  0
    1.9605    0.0844    0.2576 H   0  0  0  1  0  0  0  0  0  0  0  0
    0.8932    0.0579   -1.1261 H   0  0  0  1  0  0  0  0  0  0  0  0
   -0.5387    1.2509   -0.0828 H   0  0  0  1  0  0  0  0  0  0  0  0
    2.0529   -2.3264   -0.7049 H   0  0  0  1  0  0  0  0  0  0  0  0
    2.1690   -5.3186   -0.6231 H   0  0  0  1  0  0  0  0  0  0  0  0
   -1.9273   -3.0096    2.0645 H   0  0  0  1  0  0  0  0  0  0  0  0
   -1.2631   -5.7155    1.7057 H   0  0  0  1  0  0  0  0  0  0  0  0
    0.6120   -7.0223    0.5545 H   0  0  0  1  0  0  0  0  0  0  0  0
   -1.2103   -0.7783    1.4429 H   0  0  0  1  0  0  0  0  0  0  0  0
  1  2  1  0  0  0  0
  1  9  1  0  0  0  0
  1 12  1  0  0  0  0
  1 13  1  0  0  0  0
  2 14  1  0  0  0  0
  3  4  1  0  0  0  0
  3  5  2  0  0  0  0
  3  6  1  0  0  0  0
  4  7  2  0  0  0  0
  4  8  1  0  0  0  0
  5  9  1  0  0  0  0
  5 15  1  0  0  0  0
  6 10  2  0  0  0  0
  6 16  1  0  0  0  0
  7 11  1  0  0  0  0
  7 17  1  0  0  0  0
  8 10  1  0  0  0  0
  8 18  1  0  0  0  0
  9 11  2  0  0  0  0
 10 19  1  0  0  0  0
 11 20  1  0  0  0  0
M  END
> <ConfClashScore>
0 

> <ConfOneFourInteractionScore>
-0.988242 

> <ConfScore>
-0.0588285 

> <ConfScorePBest>
0.0128325 

> <ConfTolerance>
0.0570686 

$$$$
﻿1H-Indole-5-methanol
 OpenBabel06142111183D
1075-25-8 Copyright (C) 2021 ACS
 20 21  0  0  0  0  0  0  0  0999 V2000
    0.8438   -0.0036   -0.0776 C   0  0  0  1  0  0  0  0  0  0  0  0
   -0.1053    0.9096    0.4536 O   0  0  0  1  0  0  0  0  0  0  0  0
    0.8206   -3.7886    0.2218 C   0  0  0  1  0  0  0  0  0  0  0  0
   -0.3388   -3.9505    1.0079 C   0  0  0  1  0  0  0  0  0  0  0  0
    1.2258   -2.4887   -0.1104 C   0  0  0  1  0  0  0  0  0  0  0  0
    1.3267   -5.0992   -0.0566 C   0  0  0  1  0  0  0  0  0  0  0  0
   -1.0753   -2.8647    1.4703 C   0  0  0  1  0  0  0  0  0  0  0  0
   -0.5343   -5.3044    1.1960 N   0  0  0  1  0  0  0  0  0  0  0  0
    0.4948   -1.4189    0.3392 C   0  0  0  1  0  0  0  0  0  0  0  0
    0.4869   -5.9928    0.5587 C   0  0  0  1  0  0  0  0  0  0  0  0
   -0.6501   -1.6029    1.1227 C   0  0  0  1  0  0  0  0  0  0  0  0
    1.8174    0.2438    0.2909 H   0  0  0  1  0  0  0  0  0  0  0  0
    0.8388    0.0622   -1.1455 H   0  0  0  1  0  0  0  0  0  0  0  0
   -0.8075    1.0499   -0.1857 H   0  0  0  1  0  0  0  0  0  0  0  0
    2.0737   -2.3366   -0.6931 H   0  0  0  1  0  0  0  0  0  0  0  0
    2.1708   -5.3297   -0.6188 H   0  0  0  1  0  0  0  0  0  0  0  0
   -1.9207   -3.0022    2.0602 H   0  0  0  1  0  0  0  0  0  0  0  0
   -1.2720   -5.7112    1.6966 H   0  0  0  1  0  0  0  0  0  0  0  0
    0.5990   -7.0267    0.5488 H   0  0  0  1  0  0  0  0  0  0  0  0
   -1.1875   -0.7738    1.4470 H   0  0  0  1  0  0  0  0  0  0  0  0
  1  2  1  0  0  0  0
  1  9  1  0  0  0  0
  1 12  1  0  0  0  0
  1 13  1  0  0  0  0
  2 14  1  0  0  0  0
  3  4  1  0  0  0  0
  3  5  2  0  0  0  0
  3  6  1  0  0  0  0
  4  7  2  0  0  0  0
  4  8  1  0  0  0  0
  5  9  1  0  0  0  0
  5 15  1  0  0  0  0
  6 10  2  0  0  0  0
  6 16  1  0  0  0  0
  7 11  1  0  0  0  0
  7 17  1  0  0  0  0
  8 10  1  0  0  0  0
  8 18  1  0  0  0  0
  9 11  2  0  0  0  0
 10 19  1  0  0  0  0
 11 20  1  0  0  0  0
M  END
> <ConfClashScore>
0 

> <ConfOneFourInteractionScore>
-0.988242 

> <ConfScore>
-0.0588285 

> <ConfScorePBest>
0.0127295 

> <ConfTolerance>
0.0736553 

$$$$
﻿1H-Indole-5-methanol
 OpenBabel06142111183D
1075-25-8 Copyright (C) 2021 ACS
 20 21  0  0  0  0  0  0  0  0999 V2000
    0.8704    0.0020   -0.0114 C   0  0  0  1  0  0  0  0  0  0  0  0
    0.1671    0.9632    0.7641 O   0  0  0  1  0  0  0  0  0  0  0  0
    0.8172   -3.7897    0.2152 C   0  0  0  1  0  0  0  0  0  0  0  0
   -0.3390   -3.9504    1.0061 C   0  0  0  1  0  0  0  0  0  0  0  0
    1.2181   -2.4905   -0.1252 C   0  0  0  1  0  0  0  0  0  0  0  0
    1.3257   -5.1004   -0.0582 C   0  0  0  1  0  0  0  0  0  0  0  0
   -1.0766   -2.8640    1.4653 C   0  0  0  1  0  0  0  0  0  0  0  0
   -0.5305   -5.3038    1.2018 N   0  0  0  1  0  0  0  0  0  0  0  0
    0.4860   -1.4202    0.3214 C   0  0  0  1  0  0  0  0  0  0  0  0
    0.4903   -5.9929    0.5646 C   0  0  0  1  0  0  0  0  0  0  0  0
   -0.6557   -1.6030    1.1097 C   0  0  0  1  0  0  0  0  0  0  0  0
    1.9188    0.1222    0.1658 H   0  0  0  1  0  0  0  0  0  0  0  0
    0.6604    0.1788   -1.0456 H   0  0  0  1  0  0  0  0  0  0  0  0
   -0.6770    1.1545    0.3488 H   0  0  0  1  0  0  0  0  0  0  0  0
    2.0636   -2.3394   -0.7115 H   0  0  0  1  0  0  0  0  0  0  0  0
    2.1684   -5.3318   -0.6220 H   0  0  0  1  0  0  0  0  0  0  0  0
   -1.9197   -3.0005    2.0588 H   0  0  0  1  0  0  0  0  0  0  0  0
   -1.2656   -5.7098    1.7070 H   0  0  0  1  0  0  0  0  0  0  0  0
    0.6048   -7.0266    0.5596 H   0  0  0  1  0  0  0  0  0  0  0  0
   -1.1942   -0.7735    1.4316 H   0  0  0  1  0  0  0  0  0  0  0  0
  1  2  1  0  0  0  0
  1  9  1  0  0  0  0
  1 12  1  0  0  0  0
  1 13  1  0  0  0  0
  2 14  1  0  0  0  0
  3  4  1  0  0  0  0
  3  5  2  0  0  0  0
  3  6  1  0  0  0  0
  4  7  2  0  0  0  0
  4  8  1  0  0  0  0
  5  9  1  0  0  0  0
  5 15  1  0  0  0  0
  6 10  2  0  0  0  0
  6 16  1  0  0  0  0
  7 11  1  0  0  0  0
  7 17  1  0  0  0  0
  8 10  1  0  0  0  0
  8 18  1  0  0  0  0
  9 11  2  0  0  0  0
 10 19  1  0  0  0  0
 11 20  1  0  0  0  0
M  END
> <ConfClashScore>
0 

> <ConfOneFourInteractionScore>
-0.988242 

> <ConfScore>
-0.0588285 

> <ConfScorePBest>
0.0126265 

> <ConfTolerance>
0.0779127 

$$$$
﻿1H-Indole-5-methanol
 OpenBabel06142111183D
1075-25-8 Copyright (C) 2021 ACS
 20 21  0  0  0  0  0  0  0  0999 V2000
    0.9417   -0.0092    0.0236 C   0  0  0  1  0  0  0  0  0  0  0  0
    2.2355   -0.0375   -0.5612 O   0  0  0  1  0  0  0  0  0  0  0  0
    0.8109   -3.7875    0.2106 C   0  0  0  1  0  0  0  0  0  0  0  0
   -0.3419   -3.9507    1.0060 C   0  0  0  1  0  0  0  0  0  0  0  0
    1.2046   -2.4877   -0.1358 C   0  0  0  1  0  0  0  0  0  0  0  0
    1.3245   -5.0968   -0.0599 C   0  0  0  1  0  0  0  0  0  0  0  0
   -1.0829   -2.8661    1.4639 C   0  0  0  1  0  0  0  0  0  0  0  0
   -0.5263   -5.3043    1.2073 N   0  0  0  1  0  0  0  0  0  0  0  0
    0.4690   -1.4192    0.3095 C   0  0  0  1  0  0  0  0  0  0  0  0
    0.4954   -5.9909    0.5690 C   0  0  0  1  0  0  0  0  0  0  0  0
   -0.6691   -1.6045    1.1024 C   0  0  0  1  0  0  0  0  0  0  0  0
    0.2587    0.4629   -0.6512 H   0  0  0  1  0  0  0  0  0  0  0  0
    0.9793    0.5437    0.9389 H   0  0  0  1  0  0  0  0  0  0  0  0
    2.8948    0.1534    0.1099 H   0  0  0  1  0  0  0  0  0  0  0  0
    2.0474   -2.3348   -0.7256 H   0  0  0  1  0  0  0  0  0  0  0  0
    2.1664   -5.3263   -0.6258 H   0  0  0  1  0  0  0  0  0  0  0  0
   -1.9233   -3.0044    2.0608 H   0  0  0  1  0  0  0  0  0  0  0  0
   -1.2577   -5.7119    1.7165 H   0  0  0  1  0  0  0  0  0  0  0  0
    0.6148   -7.0240    0.5673 H   0  0  0  1  0  0  0  0  0  0  0  0
   -1.2103   -0.7763    1.4231 H   0  0  0  1  0  0  0  0  0  0  0  0
  1  2  1  0  0  0  0
  1  9  1  0  0  0  0
  1 12  1  0  0  0  0
  1 13  1  0  0  0  0
  2 14  1  0  0  0  0
  3  4  1  0  0  0  0
  3  5  2  0  0  0  0
  3  6  1  0  0  0  0
  4  7  2  0  0  0  0
  4  8  1  0  0  0  0
  5  9  1  0  0  0  0
  5 15  1  0  0  0  0
  6 10  2  0  0  0  0
  6 16  1  0  0  0  0
  7 11  1  0  0  0  0
  7 17  1  0  0  0  0
  8 10  1  0  0  0  0
  8 18  1  0  0  0  0
  9 11  2  0  0  0  0
 10 19  1  0  0  0  0
 11 20  1  0  0  0  0
M  END
> <ConfClashScore>
0 

> <ConfOneFourInteractionScore>
-0.988242 

> <ConfScore>
-0.0588285 

> <ConfScorePBest>
0.0125235 

> <ConfTolerance>
0.0414979 

$$$$
﻿1H-Indole-5-methanol
 OpenBabel06142111183D
1075-25-8 Copyright (C) 2021 ACS
 20 21  0  0  0  0  0  0  0  0999 V2000
    0.9804   -0.0512   -0.0838 C   0  0  0  1  0  0  0  0  0  0  0  0
    2.0396   -0.1245   -1.0269 O   0  0  0  1  0  0  0  0  0  0  0  0
    0.8098   -3.7807    0.2198 C   0  0  0  1  0  0  0  0  0  0  0  0
   -0.3453   -3.9508    1.0104 C   0  0  0  1  0  0  0  0  0  0  0  0
    1.2034   -2.4781   -0.1158 C   0  0  0  1  0  0  0  0  0  0  0  0
    1.3254   -5.0876   -0.0587 C   0  0  0  1  0  0  0  0  0  0  0  0
   -1.0888   -2.8702    1.4740 C   0  0  0  1  0  0  0  0  0  0  0  0
   -0.5292   -5.3059    1.2011 N   0  0  0  1  0  0  0  0  0  0  0  0
    0.4655   -1.4135    0.3351 C   0  0  0  1  0  0  0  0  0  0  0  0
    0.4951   -5.9870    0.5610 C   0  0  0  1  0  0  0  0  0  0  0  0
   -0.6749   -1.6056    1.1230 C   0  0  0  1  0  0  0  0  0  0  0  0
    0.1730    0.4990   -0.5201 H   0  0  0  1  0  0  0  0  0  0  0  0
    1.3334    0.4621    0.7861 H   0  0  0  1  0  0  0  0  0  0  0  0
    2.8766    0.0247   -0.5810 H   0  0  0  1  0  0  0  0  0  0  0  0
    2.0479   -2.3201   -0.7018 H   0  0  0  1  0  0  0  0  0  0  0  0
    2.1692   -5.3122   -0.6236 H   0  0  0  1  0  0  0  0  0  0  0  0
   -1.9309   -3.0136    2.0672 H   0  0  0  1  0  0  0  0  0  0  0  0
   -1.2619   -5.7179    1.7050 H   0  0  0  1  0  0  0  0  0  0  0  0
    0.6154   -7.0200    0.5520 H   0  0  0  1  0  0  0  0  0  0  0  0
   -1.2178   -0.7803    1.4482 H   0  0  0  1  0  0  0  0  0  0  0  0
  1  2  1  0  0  0  0
  1  9  1  0  0  0  0
  1 12  1  0  0  0  0
  1 13  1  0  0  0  0
  2 14  1  0  0  0  0
  3  4  1  0  0  0  0
  3  5  2  0  0  0  0
  3  6  1  0  0  0  0
  4  7  2  0  0  0  0
  4  8  1  0  0  0  0
  5  9  1  0  0  0  0
  5 15  1  0  0  0  0
  6 10  2  0  0  0  0
  6 16  1  0  0  0  0
  7 11  1  0  0  0  0
  7 17  1  0  0  0  0
  8 10  1  0  0  0  0
  8 18  1  0  0  0  0
  9 11  2  0  0  0  0
 10 19  1  0  0  0  0
 11 20  1  0  0  0  0
M  END
> <ConfClashScore>
0 

> <ConfOneFourInteractionScore>
-0.988242 

> <ConfScore>
-0.0588285 

> <ConfScorePBest>
0.0124205 

> <ConfTolerance>
0.097957 

$$$$
﻿1H-Indole-5-methanol
 OpenBabel06142111183D
1075-25-8 Copyright (C) 2021 ACS
 20 21  0  0  0  0  0  0  0  0999 V2000
    0.9417   -0.0092    0.0236 C   0  0  0  1  0  0  0  0  0  0  0  0
    1.3475    0.6231    1.2287 O   0  0  0  1  0  0  0  0  0  0  0  0
    0.8109   -3.7875    0.2106 C   0  0  0  1  0  0  0  0  0  0  0  0
   -0.3419   -3.9507    1.0060 C   0  0  0  1  0  0  0  0  0  0  0  0
    1.2046   -2.4877   -0.1358 C   0  0  0  1  0  0  0  0  0  0  0  0
    1.3245   -5.0968   -0.0599 C   0  0  0  1  0  0  0  0  0  0  0  0
   -1.0829   -2.8661    1.4639 C   0  0  0  1  0  0  0  0  0  0  0  0
   -0.5263   -5.3043    1.2073 N   0  0  0  1  0  0  0  0  0  0  0  0
    0.4690   -1.4192    0.3095 C   0  0  0  1  0  0  0  0  0  0  0  0
    0.4954   -5.9909    0.5690 C   0  0  0  1  0  0  0  0  0  0  0  0
   -0.6691   -1.6045    1.1024 C   0  0  0  1  0  0  0  0  0  0  0  0
    1.7694   -0.0440   -0.6536 H   0  0  0  1  0  0  0  0  0  0  0  0
    0.1426    0.5492   -0.4173 H   0  0  0  1  0  0  0  0  0  0  0  0
    0.6024    1.0926    1.6108 H   0  0  0  1  0  0  0  0  0  0  0  0
    2.0474   -2.3348   -0.7256 H   0  0  0  1  0  0  0  0  0  0  0  0
    2.1664   -5.3263   -0.6258 H   0  0  0  1  0  0  0  0  0  0  0  0
   -1.9233   -3.0044    2.0608 H   0  0  0  1  0  0  0  0  0  0  0  0
   -1.2577   -5.7119    1.7165 H   0  0  0  1  0  0  0  0  0  0  0  0
    0.6148   -7.0240    0.5673 H   0  0  0  1  0  0  0  0  0  0  0  0
   -1.2103   -0.7763    1.4231 H   0  0  0  1  0  0  0  0  0  0  0  0
  1  2  1  0  0  0  0
  1  9  1  0  0  0  0
  1 12  1  0  0  0  0
  1 13  1  0  0  0  0
  2 14  1  0  0  0  0
  3  4  1  0  0  0  0
  3  5  2  0  0  0  0
  3  6  1  0  0  0  0
  4  7  2  0  0  0  0
  4  8  1  0  0  0  0
  5  9  1  0  0  0  0
  5 15  1  0  0  0  0
  6 10  2  0  0  0  0
  6 16  1  0  0  0  0
  7 11  1  0  0  0  0
  7 17  1  0  0  0  0
  8 10  1  0  0  0  0
  8 18  1  0  0  0  0
  9 11  2  0  0  0  0
 10 19  1  0  0  0  0
 11 20  1  0  0  0  0
M  END
> <ConfClashScore>
0 

> <ConfOneFourInteractionScore>
-1 

> <ConfScore>
-0.0495848 

> <ConfScorePBest>
0.0123175 

> <ConfTolerance>
0.0329206 

$$$$
﻿1H-Indole-5-methanol
 OpenBabel06142111183D
1075-25-8 Copyright (C) 2021 ACS
 20 21  0  0  0  0  0  0  0  0999 V2000
    0.9764   -0.0252    0.0020 C   0  0  0  1  0  0  0  0  0  0  0  0
    1.5004    0.5757    1.1772 O   0  0  0  1  0  0  0  0  0  0  0  0
    0.8086   -3.7847    0.2119 C   0  0  0  1  0  0  0  0  0  0  0  0
   -0.3438   -3.9509    1.0073 C   0  0  0  1  0  0  0  0  0  0  0  0
    1.1999   -2.4839   -0.1331 C   0  0  0  1  0  0  0  0  0  0  0  0
    1.3244   -5.0929   -0.0601 C   0  0  0  1  0  0  0  0  0  0  0  0
   -1.0867   -2.8681    1.4666 C   0  0  0  1  0  0  0  0  0  0  0  0
   -0.5259   -5.3050    1.2071 N   0  0  0  1  0  0  0  0  0  0  0  0
    0.4625   -1.4172    0.3135 C   0  0  0  1  0  0  0  0  0  0  0  0
    0.4970   -5.9891    0.5680 C   0  0  0  1  0  0  0  0  0  0  0  0
   -0.6752   -1.6053    1.1063 C   0  0  0  1  0  0  0  0  0  0  0  0
    1.7480   -0.0899   -0.7364 H   0  0  0  1  0  0  0  0  0  0  0  0
    0.1725    0.5731   -0.3729 H   0  0  0  1  0  0  0  0  0  0  0  0
    0.7941    1.0190    1.6528 H   0  0  0  1  0  0  0  0  0  0  0  0
    2.0423   -2.3288   -0.7229 H   0  0  0  1  0  0  0  0  0  0  0  0
    2.1666   -5.3203   -0.6263 H   0  0  0  1  0  0  0  0  0  0  0  0
   -1.9267   -3.0085    2.0634 H   0  0  0  1  0  0  0  0  0  0  0  0
   -1.2565   -5.7144    1.7160 H   0  0  0  1  0  0  0  0  0  0  0  0
    0.6182   -7.0220    0.5651 H   0  0  0  1  0  0  0  0  0  0  0  0
   -1.2177   -0.7784    1.4281 H   0  0  0  1  0  0  0  0  0  0  0  0
  1  2  1  0  0  0  0
  1  9  1  0  0  0  0
  1 12  1  0  0  0  0
  1 13  1  0  0  0  0
  2 14  1  0  0  0  0
  3  4  1  0  0  0  0
  3  5  2  0  0  0  0
  3  6  1  0  0  0  0
  4  7  2  0  0  0  0
  4  8  1  0  0  0  0
  5  9  1  0  0  0  0
  5 15  1  0  0  0  0
  6 10  2  0  0  0  0
  6 16  1  0  0  0  0
  7 11  1  0  0  0  0
  7 17  1  0  0  0  0
  8 10  1  0  0  0  0
  8 18  1  0  0  0  0
  9 11  2  0  0  0  0
 10 19  1  0  0  0  0
 11 20  1  0  0  0  0
M  END
> <ConfClashScore>
0 

> <ConfOneFourInteractionScore>
-1 

> <ConfScore>
-0.0495848 

> <ConfScorePBest>
0.0122145 

> <ConfTolerance>
0.0436524 

$$$$
﻿1H-Indole-5-methanol
 OpenBabel06142111183D
1075-25-8 Copyright (C) 2021 ACS
 20 21  0  0  0  0  0  0  0  0999 V2000
    0.9069   -0.0234   -0.0351 C   0  0  0  1  0  0  0  0  0  0  0  0
    0.9570    0.0680   -1.4574 O   0  0  0  1  0  0  0  0  0  0  0  0
    0.8148   -3.7861    0.2167 C   0  0  0  1  0  0  0  0  0  0  0  0
   -0.3411   -3.9501    1.0075 C   0  0  0  1  0  0  0  0  0  0  0  0
    1.2131   -2.4858   -0.1220 C   0  0  0  1  0  0  0  0  0  0  0  0
    1.3257   -5.0955   -0.0585 C   0  0  0  1  0  0  0  0  0  0  0  0
   -1.0807   -2.8657    1.4682 C   0  0  0  1  0  0  0  0  0  0  0  0
   -0.5300   -5.3041    1.2015 N   0  0  0  1  0  0  0  0  0  0  0  0
    0.4790   -1.4174    0.3260 C   0  0  0  1  0  0  0  0  0  0  0  0
    0.4920   -5.9904    0.5633 C   0  0  0  1  0  0  0  0  0  0  0  0
   -0.6623   -1.6034    1.1142 C   0  0  0  1  0  0  0  0  0  0  0  0
    0.2019    0.6837    0.3495 H   0  0  0  1  0  0  0  0  0  0  0  0
    1.8743    0.1772    0.3758 H   0  0  0  1  0  0  0  0  0  0  0  0
    1.8352   -0.1705   -1.7631 H   0  0  0  1  0  0  0  0  0  0  0  0
    2.0583   -2.3323   -0.7082 H   0  0  0  1  0  0  0  0  0  0  0  0
    2.1688   -5.3246   -0.6226 H   0  0  0  1  0  0  0  0  0  0  0  0
   -1.9235   -3.0046    2.0616 H   0  0  0  1  0  0  0  0  0  0  0  0
   -1.2642   -5.7121    1.7062 H   0  0  0  1  0  0  0  0  0  0  0  0
    0.6086   -7.0238    0.5569 H   0  0  0  1  0  0  0  0  0  0  0  0
   -1.2022   -0.7754    1.4372 H   0  0  0  1  0  0  0  0  0  0  0  0
  1  2  1  0  0  0  0
  1  9  1  0  0  0  0
  1 12  1  0  0  0  0
  1 13  1  0  0  0  0
  2 14  1  0  0  0  0
  3  4  1  0  0  0  0
  3  5  2  0  0  0  0
  3  6  1  0  0  0  0
  4  7  2  0  0  0  0
  4  8  1  0  0  0  0
  5  9  1  0  0  0  0
  5 15  1  0  0  0  0
  6 10  2  0  0  0  0
  6 16  1  0  0  0  0
  7 11  1  0  0  0  0
  7 17  1  0  0  0  0
  8 10  1  0  0  0  0
  8 18  1  0  0  0  0
  9 11  2  0  0  0  0
 10 19  1  0  0  0  0
 11 20  1  0  0  0  0
M  END
> <ConfClashScore>
0 

> <ConfOneFourInteractionScore>
-1 

> <ConfScore>
-0.0495848 

> <ConfScorePBest>
0.0121115 

> <ConfTolerance>
0.0187958 

$$$$
﻿1H-Indole-5-methanol
 OpenBabel06142111183D
1075-25-8 Copyright (C) 2021 ACS
 20 21  0  0  0  0  0  0  0  0999 V2000
    0.9456   -0.0316   -0.0611 C   0  0  0  1  0  0  0  0  0  0  0  0
    1.1899    0.7025    1.1298 O   0  0  0  1  0  0  0  0  0  0  0  0
    0.8122   -3.7837    0.2184 C   0  0  0  1  0  0  0  0  0  0  0  0
   -0.3433   -3.9508    1.0090 C   0  0  0  1  0  0  0  0  0  0  0  0
    1.2081   -2.4822   -0.1188 C   0  0  0  1  0  0  0  0  0  0  0  0
    1.3255   -5.0919   -0.0585 C   0  0  0  1  0  0  0  0  0  0  0  0
   -1.0849   -2.8684    1.4712 C   0  0  0  1  0  0  0  0  0  0  0  0
   -0.5297   -5.3054    1.2013 N   0  0  0  1  0  0  0  0  0  0  0  0
    0.4721   -1.4158    0.3307 C   0  0  0  1  0  0  0  0  0  0  0  0
    0.4935   -5.9891    0.5622 C   0  0  0  1  0  0  0  0  0  0  0  0
   -0.6688   -1.6049    1.1188 C   0  0  0  1  0  0  0  0  0  0  0  0
    1.8467   -0.1047   -0.6335 H   0  0  0  1  0  0  0  0  0  0  0  0
    0.1924    0.4589   -0.6417 H   0  0  0  1  0  0  0  0  0  0  0  0
    0.4310    1.2567    1.3260 H   0  0  0  1  0  0  0  0  0  0  0  0
    2.0529   -2.3264   -0.7049 H   0  0  0  1  0  0  0  0  0  0  0  0
    2.1690   -5.3186   -0.6231 H   0  0  0  1  0  0  0  0  0  0  0  0
   -1.9273   -3.0096    2.0645 H   0  0  0  1  0  0  0  0  0  0  0  0
   -1.2631   -5.7155    1.7057 H   0  0  0  1  0  0  0  0  0  0  0  0
    0.6120   -7.0223    0.5545 H   0  0  0  1  0  0  0  0  0  0  0  0
   -1.2103   -0.7783    1.4429 H   0  0  0  1  0  0  0  0  0  0  0  0
  1  2  1  0  0  0  0
  1  9  1  0  0  0  0
  1 12  1  0  0  0  0
  1 13  1  0  0  0  0
  2 14  1  0  0  0  0
  3  4  1  0  0  0  0
  3  5  2  0  0  0  0
  3  6  1  0  0  0  0
  4  7  2  0  0  0  0
  4  8  1  0  0  0  0
  5  9  1  0  0  0  0
  5 15  1  0  0  0  0
  6 10  2  0  0  0  0
  6 16  1  0  0  0  0
  7 11  1  0  0  0  0
  7 17  1  0  0  0  0
  8 10  1  0  0  0  0
  8 18  1  0  0  0  0
  9 11  2  0  0  0  0
 10 19  1  0  0  0  0
 11 20  1  0  0  0  0
M  END
> <ConfClashScore>
0 

> <ConfOneFourInteractionScore>
-1 

> <ConfScore>
-0.0495848 

> <ConfScorePBest>
0.0120085 

> <ConfTolerance>
0.0200868 

$$$$
﻿1H-Indole-5-methanol
 OpenBabel06142111183D
1075-25-8 Copyright (C) 2021 ACS
 20 21  0  0  0  0  0  0  0  0999 V2000
    0.9077   -0.0207   -0.0358 C   0  0  0  1  0  0  0  0  0  0  0  0
    1.0162    0.6924    1.2097 O   0  0  0  1  0  0  0  0  0  0  0  0
    0.8147   -3.7863    0.2167 C   0  0  0  1  0  0  0  0  0  0  0  0
   -0.3412   -3.9503    1.0075 C   0  0  0  1  0  0  0  0  0  0  0  0
    1.2131   -2.4859   -0.1220 C   0  0  0  1  0  0  0  0  0  0  0  0
    1.3257   -5.0957   -0.0584 C   0  0  0  1  0  0  0  0  0  0  0  0
   -1.0808   -2.8659    1.4683 C   0  0  0  1  0  0  0  0  0  0  0  0
   -0.5300   -5.3043    1.2015 N   0  0  0  1  0  0  0  0  0  0  0  0
    0.4790   -1.4176    0.3261 C   0  0  0  1  0  0  0  0  0  0  0  0
    0.4920   -5.9906    0.5633 C   0  0  0  1  0  0  0  0  0  0  0  0
   -0.6623   -1.6036    1.1143 C   0  0  0  1  0  0  0  0  0  0  0  0
    1.8526   -0.0395   -0.5375 H   0  0  0  1  0  0  0  0  0  0  0  0
    0.1774    0.4412   -0.6668 H   0  0  0  1  0  0  0  0  0  0  0  0
    0.1802    1.1206    1.4077 H   0  0  0  1  0  0  0  0  0  0  0  0
    2.0583   -2.3324   -0.7082 H   0  0  0  1  0  0  0  0  0  0  0  0
    2.1688   -5.3247   -0.6226 H   0  0  0  1  0  0  0  0  0  0  0  0
   -1.9235   -3.0048    2.0616 H   0  0  0  1  0  0  0  0  0  0  0  0
   -1.2642   -5.7123    1.7063 H   0  0  0  1  0  0  0  0  0  0  0  0
    0.6086   -7.0240    0.5569 H   0  0  0  1  0  0  0  0  0  0  0  0
   -1.2023   -0.7756    1.4373 H   0  0  0  1  0  0  0  0  0  0  0  0
  1  2  1  0  0  0  0
  1  9  1  0  0  0  0
  1 12  1  0  0  0  0
  1 13  1  0  0  0  0
  2 14  1  0  0  0  0
  3  4  1  0  0  0  0
  3  5  2  0  0  0  0
  3  6  1  0  0  0  0
  4  7  2  0  0  0  0
  4  8  1  0  0  0  0
  5  9  1  0  0  0  0
  5 15  1  0  0  0  0
  6 10  2  0  0  0  0
  6 16  1  0  0  0  0
  7 11  1  0  0  0  0
  7 17  1  0  0  0  0
  8 10  1  0  0  0  0
  8 18  1  0  0  0  0
  9 11  2  0  0  0  0
 10 19  1  0  0  0  0
 11 20  1  0  0  0  0
M  END
> <ConfClashScore>
0 

> <ConfOneFourInteractionScore>
-1 

> <ConfScore>
-0.0495848 

> <ConfScorePBest>
0.0119055 

> <ConfTolerance>
0.0273974 

$$$$
﻿1H-Indole-5-methanol
 OpenBabel06142111183D
1075-25-8 Copyright (C) 2021 ACS
 20 21  0  0  0  0  0  0  0  0999 V2000
    0.9072   -0.0225   -0.0353 C   0  0  0  1  0  0  0  0  0  0  0  0
    1.2486    0.1152   -1.4069 O   0  0  0  1  0  0  0  0  0  0  0  0
    0.8148   -3.7862    0.2167 C   0  0  0  1  0  0  0  0  0  0  0  0
   -0.3411   -3.9501    1.0075 C   0  0  0  1  0  0  0  0  0  0  0  0
    1.2131   -2.4858   -0.1220 C   0  0  0  1  0  0  0  0  0  0  0  0
    1.3257   -5.0956   -0.0585 C   0  0  0  1  0  0  0  0  0  0  0  0
   -1.0808   -2.8657    1.4682 C   0  0  0  1  0  0  0  0  0  0  0  0
   -0.5300   -5.3041    1.2015 N   0  0  0  1  0  0  0  0  0  0  0  0
    0.4790   -1.4175    0.3261 C   0  0  0  1  0  0  0  0  0  0  0  0
    0.4920   -5.9905    0.5633 C   0  0  0  1  0  0  0  0  0  0  0  0
   -0.6623   -1.6035    1.1142 C   0  0  0  1  0  0  0  0  0  0  0  0
    0.1035    0.6486    0.1849 H   0  0  0  1  0  0  0  0  0  0  0  0
    1.7606    0.2361    0.5560 H   0  0  0  1  0  0  0  0  0  0  0  0
    2.1707   -0.1202   -1.5328 H   0  0  0  1  0  0  0  0  0  0  0  0
    2.0583   -2.3323   -0.7082 H   0  0  0  1  0  0  0  0  0  0  0  0
    2.1688   -5.3246   -0.6226 H   0  0  0  1  0  0  0  0  0  0  0  0
   -1.9235   -3.0046    2.0616 H   0  0  0  1  0  0  0  0  0  0  0  0
   -1.2642   -5.7122    1.7062 H   0  0  0  1  0  0  0  0  0  0  0  0
    0.6086   -7.0239    0.5569 H   0  0  0  1  0  0  0  0  0  0  0  0
   -1.2023   -0.7754    1.4372 H   0  0  0  1  0  0  0  0  0  0  0  0
  1  2  1  0  0  0  0
  1  9  1  0  0  0  0
  1 12  1  0  0  0  0
  1 13  1  0  0  0  0
  2 14  1  0  0  0  0
  3  4  1  0  0  0  0
  3  5  2  0  0  0  0
  3  6  1  0  0  0  0
  4  7  2  0  0  0  0
  4  8  1  0  0  0  0
  5  9  1  0  0  0  0
  5 15  1  0  0  0  0
  6 10  2  0  0  0  0
  6 16  1  0  0  0  0
  7 11  1  0  0  0  0
  7 17  1  0  0  0  0
  8 10  1  0  0  0  0
  8 18  1  0  0  0  0
  9 11  2  0  0  0  0
 10 19  1  0  0  0  0
 11 20  1  0  0  0  0
M  END
> <ConfClashScore>
0 

> <ConfOneFourInteractionScore>
-1 

> <ConfScore>
-0.0495848 

> <ConfScorePBest>
0.0118025 

> <ConfTolerance>
0.0300054 

$$$$
﻿1H-Indole-5-methanol
 OpenBabel06142111183D
1075-25-8 Copyright (C) 2021 ACS
 20 21  0  0  0  0  0  0  0  0999 V2000
    0.9072   -0.0225   -0.0353 C   0  0  0  1  0  0  0  0  0  0  0  0
    1.0774    0.7557    1.1404 O   0  0  0  1  0  0  0  0  0  0  0  0
    0.8148   -3.7862    0.2167 C   0  0  0  1  0  0  0  0  0  0  0  0
   -0.3411   -3.9501    1.0075 C   0  0  0  1  0  0  0  0  0  0  0  0
    1.2131   -2.4858   -0.1220 C   0  0  0  1  0  0  0  0  0  0  0  0
    1.3257   -5.0956   -0.0585 C   0  0  0  1  0  0  0  0  0  0  0  0
   -1.0808   -2.8657    1.4682 C   0  0  0  1  0  0  0  0  0  0  0  0
   -0.5300   -5.3041    1.2015 N   0  0  0  1  0  0  0  0  0  0  0  0
    0.4790   -1.4175    0.3261 C   0  0  0  1  0  0  0  0  0  0  0  0
    0.4920   -5.9905    0.5633 C   0  0  0  1  0  0  0  0  0  0  0  0
   -0.6623   -1.6035    1.1142 C   0  0  0  1  0  0  0  0  0  0  0  0
    1.8335   -0.0639   -0.5694 H   0  0  0  1  0  0  0  0  0  0  0  0
    0.1587    0.4286   -0.6528 H   0  0  0  1  0  0  0  0  0  0  0  0
    0.2590    1.2151    1.3419 H   0  0  0  1  0  0  0  0  0  0  0  0
    2.0583   -2.3323   -0.7082 H   0  0  0  1  0  0  0  0  0  0  0  0
    2.1688   -5.3246   -0.6226 H   0  0  0  1  0  0  0  0  0  0  0  0
   -1.9235   -3.0046    2.0616 H   0  0  0  1  0  0  0  0  0  0  0  0
   -1.2642   -5.7122    1.7062 H   0  0  0  1  0  0  0  0  0  0  0  0
    0.6086   -7.0239    0.5569 H   0  0  0  1  0  0  0  0  0  0  0  0
   -1.2023   -0.7754    1.4372 H   0  0  0  1  0  0  0  0  0  0  0  0
  1  2  1  0  0  0  0
  1  9  1  0  0  0  0
  1 12  1  0  0  0  0
  1 13  1  0  0  0  0
  2 14  1  0  0  0  0
  3  4  1  0  0  0  0
  3  5  2  0  0  0  0
  3  6  1  0  0  0  0
  4  7  2  0  0  0  0
  4  8  1  0  0  0  0
  5  9  1  0  0  0  0
  5 15  1  0  0  0  0
  6 10  2  0  0  0  0
  6 16  1  0  0  0  0
  7 11  1  0  0  0  0
  7 17  1  0  0  0  0
  8 10  1  0  0  0  0
  8 18  1  0  0  0  0
  9 11  2  0  0  0  0
 10 19  1  0  0  0  0
 11 20  1  0  0  0  0
M  END
> <ConfClashScore>
0 

> <ConfOneFourInteractionScore>
-1 

> <ConfScore>
-0.0495848 

> <ConfScorePBest>
0.0116995 

> <ConfTolerance>
0.0223916 

$$$$
﻿1H-Indole-5-methanol
 OpenBabel06142111183D
1075-25-8 Copyright (C) 2021 ACS
 20 21  0  0  0  0  0  0  0  0999 V2000
    0.8714    0.0060   -0.0123 C   0  0  0  1  0  0  0  0  0  0  0  0
    1.1864    0.7171    1.1759 O   0  0  0  1  0  0  0  0  0  0  0  0
    0.8172   -3.7899    0.2153 C   0  0  0  1  0  0  0  0  0  0  0  0
   -0.3391   -3.9507    1.0061 C   0  0  0  1  0  0  0  0  0  0  0  0
    1.2180   -2.4908   -0.1251 C   0  0  0  1  0  0  0  0  0  0  0  0
    1.3257   -5.1007   -0.0582 C   0  0  0  1  0  0  0  0  0  0  0  0
   -1.0767   -2.8643    1.4654 C   0  0  0  1  0  0  0  0  0  0  0  0
   -0.5306   -5.3041    1.2019 N   0  0  0  1  0  0  0  0  0  0  0  0
    0.4859   -1.4205    0.3215 C   0  0  0  1  0  0  0  0  0  0  0  0
    0.4902   -5.9932    0.5647 C   0  0  0  1  0  0  0  0  0  0  0  0
   -0.6558   -1.6033    1.1098 C   0  0  0  1  0  0  0  0  0  0  0  0
    1.7248   -0.0000   -0.6578 H   0  0  0  1  0  0  0  0  0  0  0  0
    0.0533    0.4872   -0.5063 H   0  0  0  1  0  0  0  0  0  0  0  0
    0.3943    1.1397    1.5159 H   0  0  0  1  0  0  0  0  0  0  0  0
    2.0636   -2.3396   -0.7114 H   0  0  0  1  0  0  0  0  0  0  0  0
    2.1684   -5.3321   -0.6219 H   0  0  0  1  0  0  0  0  0  0  0  0
   -1.9198   -3.0008    2.0588 H   0  0  0  1  0  0  0  0  0  0  0  0
   -1.2656   -5.7101    1.7071 H   0  0  0  1  0  0  0  0  0  0  0  0
    0.6048   -7.0268    0.5597 H   0  0  0  1  0  0  0  0  0  0  0  0
   -1.1943   -0.7738    1.4317 H   0  0  0  1  0  0  0  0  0  0  0  0
  1  2  1  0  0  0  0
  1  9  1  0  0  0  0
  1 12  1  0  0  0  0
  1 13  1  0  0  0  0
  2 14  1  0  0  0  0
  3  4  1  0  0  0  0
  3  5  2  0  0  0  0
  3  6  1  0  0  0  0
  4  7  2  0  0  0  0
  4  8  1  0  0  0  0
  5  9  1  0  0  0  0
  5 15  1  0  0  0  0
  6 10  2  0  0  0  0
  6 16  1  0  0  0  0
  7 11  1  0  0  0  0
  7 17  1  0  0  0  0
  8 10  1  0  0  0  0
  8 18  1  0  0  0  0
  9 11  2  0  0  0  0
 10 19  1  0  0  0  0
 11 20  1  0  0  0  0
M  END
> <ConfClashScore>
0 

> <ConfOneFourInteractionScore>
-1 

> <ConfScore>
-0.0495848 

> <ConfScorePBest>
0.0115965 

> <ConfTolerance>
0.0288039 

$$$$
﻿1H-Indole-5-methanol
 OpenBabel06142111183D
1075-25-8 Copyright (C) 2021 ACS
 20 21  0  0  0  0  0  0  0  0999 V2000
    0.9456   -0.0316   -0.0611 C   0  0  0  1  0  0  0  0  0  0  0  0
    0.7873    0.1613   -1.4652 O   0  0  0  1  0  0  0  0  0  0  0  0
    0.8122   -3.7837    0.2184 C   0  0  0  1  0  0  0  0  0  0  0  0
   -0.3433   -3.9508    1.0090 C   0  0  0  1  0  0  0  0  0  0  0  0
    1.2081   -2.4822   -0.1188 C   0  0  0  1  0  0  0  0  0  0  0  0
    1.3255   -5.0919   -0.0585 C   0  0  0  1  0  0  0  0  0  0  0  0
   -1.0849   -2.8684    1.4712 C   0  0  0  1  0  0  0  0  0  0  0  0
   -0.5297   -5.3054    1.2013 N   0  0  0  1  0  0  0  0  0  0  0  0
    0.4721   -1.4158    0.3307 C   0  0  0  1  0  0  0  0  0  0  0  0
    0.4935   -5.9891    0.5622 C   0  0  0  1  0  0  0  0  0  0  0  0
   -0.6688   -1.6049    1.1188 C   0  0  0  1  0  0  0  0  0  0  0  0
    0.3693    0.7013    0.4639 H   0  0  0  1  0  0  0  0  0  0  0  0
    1.9787    0.0750    0.1964 H   0  0  0  1  0  0  0  0  0  0  0  0
    1.5634   -0.1692   -1.9236 H   0  0  0  1  0  0  0  0  0  0  0  0
    2.0529   -2.3264   -0.7049 H   0  0  0  1  0  0  0  0  0  0  0  0
    2.1690   -5.3186   -0.6231 H   0  0  0  1  0  0  0  0  0  0  0  0
   -1.9273   -3.0096    2.0645 H   0  0  0  1  0  0  0  0  0  0  0  0
   -1.2631   -5.7155    1.7057 H   0  0  0  1  0  0  0  0  0  0  0  0
    0.6120   -7.0223    0.5545 H   0  0  0  1  0  0  0  0  0  0  0  0
   -1.2103   -0.7783    1.4429 H   0  0  0  1  0  0  0  0  0  0  0  0
  1  2  1  0  0  0  0
  1  9  1  0  0  0  0
  1 12  1  0  0  0  0
  1 13  1  0  0  0  0
  2 14  1  0  0  0  0
  3  4  1  0  0  0  0
  3  5  2  0  0  0  0
  3  6  1  0  0  0  0
  4  7  2  0  0  0  0
  4  8  1  0  0  0  0
  5  9  1  0  0  0  0
  5 15  1  0  0  0  0
  6 10  2  0  0  0  0
  6 16  1  0  0  0  0
  7 11  1  0  0  0  0
  7 17  1  0  0  0  0
  8 10  1  0  0  0  0
  8 18  1  0  0  0  0
  9 11  2  0  0  0  0
 10 19  1  0  0  0  0
 11 20  1  0  0  0  0
M  END
> <ConfClashScore>
0 

> <ConfOneFourInteractionScore>
-1 

> <ConfScore>
-0.0495848 

> <ConfScorePBest>
0.0114935 

> <ConfTolerance>
0.0212284 

$$$$
﻿1H-Indole-5-methanol
 OpenBabel06142111183D
1075-25-8 Copyright (C) 2021 ACS
 20 21  0  0  0  0  0  0  0  0999 V2000
    0.9407   -0.0127    0.0243 C   0  0  0  1  0  0  0  0  0  0  0  0
    0.9925    0.2099   -1.3773 O   0  0  0  1  0  0  0  0  0  0  0  0
    0.8110   -3.7872    0.2105 C   0  0  0  1  0  0  0  0  0  0  0  0
   -0.3418   -3.9505    1.0060 C   0  0  0  1  0  0  0  0  0  0  0  0
    1.2047   -2.4875   -0.1359 C   0  0  0  1  0  0  0  0  0  0  0  0
    1.3246   -5.0966   -0.0599 C   0  0  0  1  0  0  0  0  0  0  0  0
   -1.0828   -2.8659    1.4639 C   0  0  0  1  0  0  0  0  0  0  0  0
   -0.5263   -5.3040    1.2072 N   0  0  0  1  0  0  0  0  0  0  0  0
    0.4692   -1.4190    0.3094 C   0  0  0  1  0  0  0  0  0  0  0  0
    0.4954   -5.9907    0.5690 C   0  0  0  1  0  0  0  0  0  0  0  0
   -0.6690   -1.6042    1.1023 C   0  0  0  1  0  0  0  0  0  0  0  0
    0.2618    0.6850    0.4685 H   0  0  0  1  0  0  0  0  0  0  0  0
    1.9168    0.1245    0.4406 H   0  0  0  1  0  0  0  0  0  0  0  0
    1.8131   -0.1442   -1.7279 H   0  0  0  1  0  0  0  0  0  0  0  0
    2.0475   -2.3346   -0.7257 H   0  0  0  1  0  0  0  0  0  0  0  0
    2.1665   -5.3261   -0.6258 H   0  0  0  1  0  0  0  0  0  0  0  0
   -1.9232   -3.0041    2.0607 H   0  0  0  1  0  0  0  0  0  0  0  0
   -1.2577   -5.7116    1.7164 H   0  0  0  1  0  0  0  0  0  0  0  0
    0.6148   -7.0238    0.5673 H   0  0  0  1  0  0  0  0  0  0  0  0
   -1.2101   -0.7761    1.4231 H   0  0  0  1  0  0  0  0  0  0  0  0
  1  2  1  0  0  0  0
  1  9  1  0  0  0  0
  1 12  1  0  0  0  0
  1 13  1  0  0  0  0
  2 14  1  0  0  0  0
  3  4  1  0  0  0  0
  3  5  2  0  0  0  0
  3  6  1  0  0  0  0
  4  7  2  0  0  0  0
  4  8  1  0  0  0  0
  5  9  1  0  0  0  0
  5 15  1  0  0  0  0
  6 10  2  0  0  0  0
  6 16  1  0  0  0  0
  7 11  1  0  0  0  0
  7 17  1  0  0  0  0
  8 10  1  0  0  0  0
  8 18  1  0  0  0  0
  9 11  2  0  0  0  0
 10 19  1  0  0  0  0
 11 20  1  0  0  0  0
M  END
> <ConfClashScore>
0 

> <ConfOneFourInteractionScore>
-1 

> <ConfScore>
-0.0495848 

> <ConfScorePBest>
0.0113905 

> <ConfTolerance>
0.0285425 

$$$$
﻿1H-Indole-5-methanol
 OpenBabel06142111183D
1075-25-8 Copyright (C) 2021 ACS
 20 21  0  0  0  0  0  0  0  0999 V2000
    0.9069   -0.0234   -0.0351 C   0  0  0  1  0  0  0  0  0  0  0  0
    0.6530    0.1130   -1.4452 O   0  0  0  1  0  0  0  0  0  0  0  0
    0.8148   -3.7861    0.2167 C   0  0  0  1  0  0  0  0  0  0  0  0
   -0.3411   -3.9501    1.0075 C   0  0  0  1  0  0  0  0  0  0  0  0
    1.2131   -2.4858   -0.1220 C   0  0  0  1  0  0  0  0  0  0  0  0
    1.3257   -5.0955   -0.0585 C   0  0  0  1  0  0  0  0  0  0  0  0
   -1.0807   -2.8657    1.4682 C   0  0  0  1  0  0  0  0  0  0  0  0
   -0.5300   -5.3041    1.2015 N   0  0  0  1  0  0  0  0  0  0  0  0
    0.4790   -1.4174    0.3260 C   0  0  0  1  0  0  0  0  0  0  0  0
    0.4920   -5.9904    0.5633 C   0  0  0  1  0  0  0  0  0  0  0  0
   -0.6623   -1.6034    1.1142 C   0  0  0  1  0  0  0  0  0  0  0  0
    0.3380    0.6954    0.5169 H   0  0  0  1  0  0  0  0  0  0  0  0
    1.9483    0.1113    0.1704 H   0  0  0  1  0  0  0  0  0  0  0  0
    1.4224   -0.1795   -1.9391 H   0  0  0  1  0  0  0  0  0  0  0  0
    2.0583   -2.3323   -0.7082 H   0  0  0  1  0  0  0  0  0  0  0  0
    2.1688   -5.3246   -0.6226 H   0  0  0  1  0  0  0  0  0  0  0  0
   -1.9235   -3.0046    2.0616 H   0  0  0  1  0  0  0  0  0  0  0  0
   -1.2642   -5.7121    1.7062 H   0  0  0  1  0  0  0  0  0  0  0  0
    0.6086   -7.0238    0.5569 H   0  0  0  1  0  0  0  0  0  0  0  0
   -1.2022   -0.7754    1.4372 H   0  0  0  1  0  0  0  0  0  0  0  0
  1  2  1  0  0  0  0
  1  9  1  0  0  0  0
  1 12  1  0  0  0  0
  1 13  1  0  0  0  0
  2 14  1  0  0  0  0
  3  4  1  0  0  0  0
  3  5  2  0  0  0  0
  3  6  1  0  0  0  0
  4  7  2  0  0  0  0
  4  8  1  0  0  0  0
  5  9  1  0  0  0  0
  5 15  1  0  0  0  0
  6 10  2  0  0  0  0
  6 16  1  0  0  0  0
  7 11  1  0  0  0  0
  7 17  1  0  0  0  0
  8 10  1  0  0  0  0
  8 18  1  0  0  0  0
  9 11  2  0  0  0  0
 10 19  1  0  0  0  0
 11 20  1  0  0  0  0
M  END
> <ConfClashScore>
0 

> <ConfOneFourInteractionScore>
-1 

> <ConfScore>
-0.0495848 

> <ConfScorePBest>
0.0112875 

> <ConfTolerance>
0.0354652 

$$$$
﻿1H-Indole-5-methanol
 OpenBabel06142111183D
1075-25-8 Copyright (C) 2021 ACS
 20 21  0  0  0  0  0  0  0  0999 V2000
    0.9417   -0.0092    0.0236 C   0  0  0  1  0  0  0  0  0  0  0  0
    1.1748    0.1019   -1.3789 O   0  0  0  1  0  0  0  0  0  0  0  0
    0.8109   -3.7875    0.2106 C   0  0  0  1  0  0  0  0  0  0  0  0
   -0.3419   -3.9507    1.0060 C   0  0  0  1  0  0  0  0  0  0  0  0
    1.2046   -2.4877   -0.1358 C   0  0  0  1  0  0  0  0  0  0  0  0
    1.3245   -5.0968   -0.0599 C   0  0  0  1  0  0  0  0  0  0  0  0
   -1.0829   -2.8661    1.4639 C   0  0  0  1  0  0  0  0  0  0  0  0
   -0.5263   -5.3043    1.2073 N   0  0  0  1  0  0  0  0  0  0  0  0
    0.4690   -1.4192    0.3095 C   0  0  0  1  0  0  0  0  0  0  0  0
    0.4954   -5.9909    0.5690 C   0  0  0  1  0  0  0  0  0  0  0  0
   -0.6691   -1.6045    1.1024 C   0  0  0  1  0  0  0  0  0  0  0  0
    0.1920    0.6927    0.3237 H   0  0  0  1  0  0  0  0  0  0  0  0
    1.8478    0.1852    0.5586 H   0  0  0  1  0  0  0  0  0  0  0  0
    2.0873   -0.1258   -1.5712 H   0  0  0  1  0  0  0  0  0  0  0  0
    2.0474   -2.3348   -0.7256 H   0  0  0  1  0  0  0  0  0  0  0  0
    2.1664   -5.3263   -0.6258 H   0  0  0  1  0  0  0  0  0  0  0  0
   -1.9233   -3.0044    2.0608 H   0  0  0  1  0  0  0  0  0  0  0  0
   -1.2577   -5.7119    1.7165 H   0  0  0  1  0  0  0  0  0  0  0  0
    0.6148   -7.0240    0.5673 H   0  0  0  1  0  0  0  0  0  0  0  0
   -1.2103   -0.7763    1.4231 H   0  0  0  1  0  0  0  0  0  0  0  0
  1  2  1  0  0  0  0
  1  9  1  0  0  0  0
  1 12  1  0  0  0  0
  1 13  1  0  0  0  0
  2 14  1  0  0  0  0
  3  4  1  0  0  0  0
  3  5  2  0  0  0  0
  3  6  1  0  0  0  0
  4  7  2  0  0  0  0
  4  8  1  0  0  0  0
  5  9  1  0  0  0  0
  5 15  1  0  0  0  0
  6 10  2  0  0  0  0
  6 16  1  0  0  0  0
  7 11  1  0  0  0  0
  7 17  1  0  0  0  0
  8 10  1  0  0  0  0
  8 18  1  0  0  0  0
  9 11  2  0  0  0  0
 10 19  1  0  0  0  0
 11 20  1  0  0  0  0
M  END
> <ConfClashScore>
0 

> <ConfOneFourInteractionScore>
-1 

> <ConfScore>
-0.0495848 

> <ConfScorePBest>
0.0111845 

> <ConfTolerance>
0.0357217 

$$$$
﻿1H-Indole-5-methanol
 OpenBabel06142111183D
1075-25-8 Copyright (C) 2021 ACS
 20 21  0  0  0  0  0  0  0  0999 V2000
    0.9456   -0.0316   -0.0611 C   0  0  0  1  0  0  0  0  0  0  0  0
    1.0511    0.8525    1.0453 O   0  0  0  1  0  0  0  0  0  0  0  0
    0.8122   -3.7837    0.2184 C   0  0  0  1  0  0  0  0  0  0  0  0
   -0.3433   -3.9508    1.0090 C   0  0  0  1  0  0  0  0  0  0  0  0
    1.2081   -2.4822   -0.1188 C   0  0  0  1  0  0  0  0  0  0  0  0
    1.3255   -5.0919   -0.0585 C   0  0  0  1  0  0  0  0  0  0  0  0
   -1.0849   -2.8684    1.4712 C   0  0  0  1  0  0  0  0  0  0  0  0
   -0.5297   -5.3054    1.2013 N   0  0  0  1  0  0  0  0  0  0  0  0
    0.4721   -1.4158    0.3307 C   0  0  0  1  0  0  0  0  0  0  0  0
    0.4935   -5.9891    0.5622 C   0  0  0  1  0  0  0  0  0  0  0  0
   -0.6688   -1.6049    1.1188 C   0  0  0  1  0  0  0  0  0  0  0  0
    1.9078   -0.1180   -0.5213 H   0  0  0  1  0  0  0  0  0  0  0  0
    0.2503    0.3809   -0.7619 H   0  0  0  1  0  0  0  0  0  0  0  0
    0.2507    1.3783    1.1128 H   0  0  0  1  0  0  0  0  0  0  0  0
    2.0529   -2.3264   -0.7049 H   0  0  0  1  0  0  0  0  0  0  0  0
    2.1690   -5.3186   -0.6231 H   0  0  0  1  0  0  0  0  0  0  0  0
   -1.9273   -3.0096    2.0645 H   0  0  0  1  0  0  0  0  0  0  0  0
   -1.2631   -5.7155    1.7057 H   0  0  0  1  0  0  0  0  0  0  0  0
    0.6120   -7.0223    0.5545 H   0  0  0  1  0  0  0  0  0  0  0  0
   -1.2103   -0.7783    1.4429 H   0  0  0  1  0  0  0  0  0  0  0  0
  1  2  1  0  0  0  0
  1  9  1  0  0  0  0
  1 12  1  0  0  0  0
  1 13  1  0  0  0  0
  2 14  1  0  0  0  0
  3  4  1  0  0  0  0
  3  5  2  0  0  0  0
  3  6  1  0  0  0  0
  4  7  2  0  0  0  0
  4  8  1  0  0  0  0
  5  9  1  0  0  0  0
  5 15  1  0  0  0  0
  6 10  2  0  0  0  0
  6 16  1  0  0  0  0
  7 11  1  0  0  0  0
  7 17  1  0  0  0  0
  8 10  1  0  0  0  0
  8 18  1  0  0  0  0
  9 11  2  0  0  0  0
 10 19  1  0  0  0  0
 11 20  1  0  0  0  0
M  END
> <ConfClashScore>
0 

> <ConfOneFourInteractionScore>
-1 

> <ConfScore>
-0.0495848 

> <ConfScorePBest>
0.0110815 

> <ConfTolerance>
0.0362572 

$$$$
﻿1H-Indole-5-methanol
 OpenBabel06142111183D
1075-25-8 Copyright (C) 2021 ACS
 20 21  0  0  0  0  0  0  0  0999 V2000
    0.9072   -0.0225   -0.0353 C   0  0  0  1  0  0  0  0  0  0  0  0
    0.9049    0.2142   -1.4416 O   0  0  0  1  0  0  0  0  0  0  0  0
    0.8148   -3.7862    0.2167 C   0  0  0  1  0  0  0  0  0  0  0  0
   -0.3411   -3.9501    1.0075 C   0  0  0  1  0  0  0  0  0  0  0  0
    1.2131   -2.4858   -0.1220 C   0  0  0  1  0  0  0  0  0  0  0  0
    1.3257   -5.0956   -0.0585 C   0  0  0  1  0  0  0  0  0  0  0  0
   -1.0808   -2.8657    1.4682 C   0  0  0  1  0  0  0  0  0  0  0  0
   -0.5300   -5.3041    1.2015 N   0  0  0  1  0  0  0  0  0  0  0  0
    0.4790   -1.4175    0.3261 C   0  0  0  1  0  0  0  0  0  0  0  0
    0.4920   -5.9905    0.5633 C   0  0  0  1  0  0  0  0  0  0  0  0
   -0.6623   -1.6035    1.1142 C   0  0  0  1  0  0  0  0  0  0  0  0
    0.2367    0.6707    0.4281 H   0  0  0  1  0  0  0  0  0  0  0  0
    1.8981    0.1368    0.3356 H   0  0  0  1  0  0  0  0  0  0  0  0
    1.7963    0.1167   -1.7844 H   0  0  0  1  0  0  0  0  0  0  0  0
    2.0583   -2.3323   -0.7082 H   0  0  0  1  0  0  0  0  0  0  0  0
    2.1688   -5.3246   -0.6226 H   0  0  0  1  0  0  0  0  0  0  0  0
   -1.9235   -3.0046    2.0616 H   0  0  0  1  0  0  0  0  0  0  0  0
   -1.2642   -5.7122    1.7062 H   0  0  0  1  0  0  0  0  0  0  0  0
    0.6086   -7.0239    0.5569 H   0  0  0  1  0  0  0  0  0  0  0  0
   -1.2023   -0.7754    1.4372 H   0  0  0  1  0  0  0  0  0  0  0  0
  1  2  1  0  0  0  0
  1  9  1  0  0  0  0
  1 12  1  0  0  0  0
  1 13  1  0  0  0  0
  2 14  1  0  0  0  0
  3  4  1  0  0  0  0
  3  5  2  0  0  0  0
  3  6  1  0  0  0  0
  4  7  2  0  0  0  0
  4  8  1  0  0  0  0
  5  9  1  0  0  0  0
  5 15  1  0  0  0  0
  6 10  2  0  0  0  0
  6 16  1  0  0  0  0
  7 11  1  0  0  0  0
  7 17  1  0  0  0  0
  8 10  1  0  0  0  0
  8 18  1  0  0  0  0
  9 11  2  0  0  0  0
 10 19  1  0  0  0  0
 11 20  1  0  0  0  0
M  END
> <ConfClashScore>
0 

> <ConfOneFourInteractionScore>
-1 

> <ConfScore>
-0.0495848 

> <ConfScorePBest>
0.0109785 

> <ConfTolerance>
0.0207178 

$$$$
﻿1H-Indole-5-methanol
 OpenBabel06142111183D
1075-25-8 Copyright (C) 2021 ACS
 20 21  0  0  0  0  0  0  0  0999 V2000
    0.9456   -0.0316   -0.0611 C   0  0  0  1  0  0  0  0  0  0  0  0
    1.2855    0.6688    1.1266 O   0  0  0  1  0  0  0  0  0  0  0  0
    0.8122   -3.7837    0.2184 C   0  0  0  1  0  0  0  0  0  0  0  0
   -0.3433   -3.9508    1.0090 C   0  0  0  1  0  0  0  0  0  0  0  0
    1.2081   -2.4822   -0.1188 C   0  0  0  1  0  0  0  0  0  0  0  0
    1.3255   -5.0919   -0.0585 C   0  0  0  1  0  0  0  0  0  0  0  0
   -1.0849   -2.8684    1.4712 C   0  0  0  1  0  0  0  0  0  0  0  0
   -0.5297   -5.3054    1.2013 N   0  0  0  1  0  0  0  0  0  0  0  0
    0.4721   -1.4158    0.3307 C   0  0  0  1  0  0  0  0  0  0  0  0
    0.4935   -5.9891    0.5622 C   0  0  0  1  0  0  0  0  0  0  0  0
   -0.6688   -1.6049    1.1188 C   0  0  0  1  0  0  0  0  0  0  0  0
    1.8038   -0.1077   -0.6957 H   0  0  0  1  0  0  0  0  0  0  0  0
    0.1646    0.4867   -0.5771 H   0  0  0  1  0  0  0  0  0  0  0  0
    0.4886    1.0196    1.5309 H   0  0  0  1  0  0  0  0  0  0  0  0
    2.0529   -2.3264   -0.7049 H   0  0  0  1  0  0  0  0  0  0  0  0
    2.1690   -5.3186   -0.6231 H   0  0  0  1  0  0  0  0  0  0  0  0
   -1.9273   -3.0096    2.0645 H   0  0  0  1  0  0  0  0  0  0  0  0
   -1.2631   -5.7155    1.7057 H   0  0  0  1  0  0  0  0  0  0  0  0
    0.6120   -7.0223    0.5545 H   0  0  0  1  0  0  0  0  0  0  0  0
   -1.2103   -0.7783    1.4429 H   0  0  0  1  0  0  0  0  0  0  0  0
  1  2  1  0  0  0  0
  1  9  1  0  0  0  0
  1 12  1  0  0  0  0
  1 13  1  0  0  0  0
  2 14  1  0  0  0  0
  3  4  1  0  0  0  0
  3  5  2  0  0  0  0
  3  6  1  0  0  0  0
  4  7  2  0  0  0  0
  4  8  1  0  0  0  0
  5  9  1  0  0  0  0
  5 15  1  0  0  0  0
  6 10  2  0  0  0  0
  6 16  1  0  0  0  0
  7 11  1  0  0  0  0
  7 17  1  0  0  0  0
  8 10  1  0  0  0  0
  8 18  1  0  0  0  0
  9 11  2  0  0  0  0
 10 19  1  0  0  0  0
 11 20  1  0  0  0  0
M  END
> <ConfClashScore>
0 

> <ConfOneFourInteractionScore>
-1 

> <ConfScore>
-0.0495848 

> <ConfScorePBest>
0.0108755 

> <ConfTolerance>
0.0339198 

$$$$
﻿1H-Indole-5-methanol
 OpenBabel06142111183D
1075-25-8 Copyright (C) 2021 ACS
 20 21  0  0  0  0  0  0  0  0999 V2000
    0.8714    0.0060   -0.0123 C   0  0  0  1  0  0  0  0  0  0  0  0
    0.7554    0.2284   -1.4101 O   0  0  0  1  0  0  0  0  0  0  0  0
    0.8172   -3.7899    0.2153 C   0  0  0  1  0  0  0  0  0  0  0  0
   -0.3391   -3.9507    1.0061 C   0  0  0  1  0  0  0  0  0  0  0  0
    1.2180   -2.4908   -0.1251 C   0  0  0  1  0  0  0  0  0  0  0  0
    1.3257   -5.1007   -0.0582 C   0  0  0  1  0  0  0  0  0  0  0  0
   -1.0767   -2.8643    1.4654 C   0  0  0  1  0  0  0  0  0  0  0  0
   -0.5306   -5.3041    1.2019 N   0  0  0  1  0  0  0  0  0  0  0  0
    0.4859   -1.4205    0.3215 C   0  0  0  1  0  0  0  0  0  0  0  0
    0.4902   -5.9932    0.5647 C   0  0  0  1  0  0  0  0  0  0  0  0
   -0.6558   -1.6033    1.1098 C   0  0  0  1  0  0  0  0  0  0  0  0
    0.2224    0.6789    0.5081 H   0  0  0  1  0  0  0  0  0  0  0  0
    1.8829    0.1792    0.2907 H   0  0  0  1  0  0  0  0  0  0  0  0
    1.4906   -0.1908   -1.8634 H   0  0  0  1  0  0  0  0  0  0  0  0
    2.0636   -2.3396   -0.7114 H   0  0  0  1  0  0  0  0  0  0  0  0
    2.1684   -5.3321   -0.6219 H   0  0  0  1  0  0  0  0  0  0  0  0
   -1.9198   -3.0008    2.0588 H   0  0  0  1  0  0  0  0  0  0  0  0
   -1.2656   -5.7101    1.7071 H   0  0  0  1  0  0  0  0  0  0  0  0
    0.6048   -7.0268    0.5597 H   0  0  0  1  0  0  0  0  0  0  0  0
   -1.1943   -0.7738    1.4317 H   0  0  0  1  0  0  0  0  0  0  0  0
  1  2  1  0  0  0  0
  1  9  1  0  0  0  0
  1 12  1  0  0  0  0
  1 13  1  0  0  0  0
  2 14  1  0  0  0  0
  3  4  1  0  0  0  0
  3  5  2  0  0  0  0
  3  6  1  0  0  0  0
  4  7  2  0  0  0  0
  4  8  1  0  0  0  0
  5  9  1  0  0  0  0
  5 15  1  0  0  0  0
  6 10  2  0  0  0  0
  6 16  1  0  0  0  0
  7 11  1  0  0  0  0
  7 17  1  0  0  0  0
  8 10  1  0  0  0  0
  8 18  1  0  0  0  0
  9 11  2  0  0  0  0
 10 19  1  0  0  0  0
 11 20  1  0  0  0  0
M  END
> <ConfClashScore>
0 

> <ConfOneFourInteractionScore>
-1 

> <ConfScore>
-0.0495848 

> <ConfScorePBest>
0.0107725 

> <ConfTolerance>
0.0337874 

$$$$
﻿1H-Indole-5-methanol
 OpenBabel06142111183D
1075-25-8 Copyright (C) 2021 ACS
 20 21  0  0  0  0  0  0  0  0999 V2000
    0.8714    0.0060   -0.0123 C   0  0  0  1  0  0  0  0  0  0  0  0
    1.1263    0.2027   -1.3966 O   0  0  0  1  0  0  0  0  0  0  0  0
    0.8172   -3.7899    0.2153 C   0  0  0  1  0  0  0  0  0  0  0  0
   -0.3391   -3.9507    1.0061 C   0  0  0  1  0  0  0  0  0  0  0  0
    1.2180   -2.4908   -0.1251 C   0  0  0  1  0  0  0  0  0  0  0  0
    1.3257   -5.1007   -0.0582 C   0  0  0  1  0  0  0  0  0  0  0  0
   -1.0767   -2.8643    1.4654 C   0  0  0  1  0  0  0  0  0  0  0  0
   -0.5306   -5.3041    1.2019 N   0  0  0  1  0  0  0  0  0  0  0  0
    0.4859   -1.4205    0.3215 C   0  0  0  1  0  0  0  0  0  0  0  0
    0.4902   -5.9932    0.5647 C   0  0  0  1  0  0  0  0  0  0  0  0
   -0.6558   -1.6033    1.1098 C   0  0  0  1  0  0  0  0  0  0  0  0
    0.0719    0.6530    0.2824 H   0  0  0  1  0  0  0  0  0  0  0  0
    1.7551    0.2575    0.5361 H   0  0  0  1  0  0  0  0  0  0  0  0
    2.0527    0.0295   -1.5797 H   0  0  0  1  0  0  0  0  0  0  0  0
    2.0636   -2.3396   -0.7114 H   0  0  0  1  0  0  0  0  0  0  0  0
    2.1684   -5.3321   -0.6219 H   0  0  0  1  0  0  0  0  0  0  0  0
   -1.9198   -3.0008    2.0588 H   0  0  0  1  0  0  0  0  0  0  0  0
   -1.2656   -5.7101    1.7071 H   0  0  0  1  0  0  0  0  0  0  0  0
    0.6048   -7.0268    0.5597 H   0  0  0  1  0  0  0  0  0  0  0  0
   -1.1943   -0.7738    1.4317 H   0  0  0  1  0  0  0  0  0  0  0  0
  1  2  1  0  0  0  0
  1  9  1  0  0  0  0
  1 12  1  0  0  0  0
  1 13  1  0  0  0  0
  2 14  1  0  0  0  0
  3  4  1  0  0  0  0
  3  5  2  0  0  0  0
  3  6  1  0  0  0  0
  4  7  2  0  0  0  0
  4  8  1  0  0  0  0
  5  9  1  0  0  0  0
  5 15  1  0  0  0  0
  6 10  2  0  0  0  0
  6 16  1  0  0  0  0
  7 11  1  0  0  0  0
  7 17  1  0  0  0  0
  8 10  1  0  0  0  0
  8 18  1  0  0  0  0
  9 11  2  0  0  0  0
 10 19  1  0  0  0  0
 11 20  1  0  0  0  0
M  END
> <ConfClashScore>
0 

> <ConfOneFourInteractionScore>
-1 

> <ConfScore>
-0.0495848 

> <ConfScorePBest>
0.0106695 

> <ConfTolerance>
0.0513959 

$$$$
﻿1H-Indole-5-methanol
 OpenBabel06142111183D
1075-25-8 Copyright (C) 2021 ACS
 20 21  0  0  0  0  0  0  0  0999 V2000
    0.8779   -0.0216   -0.0985 C   0  0  0  1  0  0  0  0  0  0  0  0
    1.1905    0.8373    0.9883 O   0  0  0  1  0  0  0  0  0  0  0  0
    0.8182   -3.7857    0.2231 C   0  0  0  1  0  0  0  0  0  0  0  0
   -0.3407   -3.9505    1.0092 C   0  0  0  1  0  0  0  0  0  0  0  0
    1.2211   -2.4848   -0.1078 C   0  0  0  1  0  0  0  0  0  0  0  0
    1.3266   -5.0951   -0.0568 C   0  0  0  1  0  0  0  0  0  0  0  0
   -1.0790   -2.8665    1.4729 C   0  0  0  1  0  0  0  0  0  0  0  0
   -0.5338   -5.3050    1.1959 N   0  0  0  1  0  0  0  0  0  0  0  0
    0.4883   -1.4167    0.3431 C   0  0  0  1  0  0  0  0  0  0  0  0
    0.4885   -5.9908    0.5577 C   0  0  0  1  0  0  0  0  0  0  0  0
   -0.6561   -1.6036    1.1266 C   0  0  0  1  0  0  0  0  0  0  0  0
    1.7355   -0.0924   -0.7346 H   0  0  0  1  0  0  0  0  0  0  0  0
    0.0620    0.4032   -0.6451 H   0  0  0  1  0  0  0  0  0  0  0  0
    0.4019    1.3146    1.2566 H   0  0  0  1  0  0  0  0  0  0  0  0
    2.0687   -2.3306   -0.6904 H   0  0  0  1  0  0  0  0  0  0  0  0
    2.1710   -5.3236   -0.6193 H   0  0  0  1  0  0  0  0  0  0  0  0
   -1.9241   -3.0061    2.0628 H   0  0  0  1  0  0  0  0  0  0  0  0
   -1.2708   -5.7136    1.6961 H   0  0  0  1  0  0  0  0  0  0  0  0
    0.6024   -7.0245    0.5466 H   0  0  0  1  0  0  0  0  0  0  0  0
   -1.1950   -0.7758    1.4519 H   0  0  0  1  0  0  0  0  0  0  0  0
  1  2  1  0  0  0  0
  1  9  1  0  0  0  0
  1 12  1  0  0  0  0
  1 13  1  0  0  0  0
  2 14  1  0  0  0  0
  3  4  1  0  0  0  0
  3  5  2  0  0  0  0
  3  6  1  0  0  0  0
  4  7  2  0  0  0  0
  4  8  1  0  0  0  0
  5  9  1  0  0  0  0
  5 15  1  0  0  0  0
  6 10  2  0  0  0  0
  6 16  1  0  0  0  0
  7 11  1  0  0  0  0
  7 17  1  0  0  0  0
  8 10  1  0  0  0  0
  8 18  1  0  0  0  0
  9 11  2  0  0  0  0
 10 19  1  0  0  0  0
 11 20  1  0  0  0  0
M  END
> <ConfClashScore>
0 

> <ConfOneFourInteractionScore>
-1 

> <ConfScore>
-0.0495848 

> <ConfScorePBest>
0.0105665 

> <ConfTolerance>
0.0634716 

$$$$
﻿1H-Indole-5-methanol
 OpenBabel06142111183D
1075-25-8 Copyright (C) 2021 ACS
 20 21  0  0  0  0  0  0  0  0999 V2000
    0.9417   -0.0092    0.0236 C   0  0  0  1  0  0  0  0  0  0  0  0
    1.1261    0.7640    1.2018 O   0  0  0  1  0  0  0  0  0  0  0  0
    0.8109   -3.7875    0.2106 C   0  0  0  1  0  0  0  0  0  0  0  0
   -0.3419   -3.9507    1.0060 C   0  0  0  1  0  0  0  0  0  0  0  0
    1.2046   -2.4877   -0.1358 C   0  0  0  1  0  0  0  0  0  0  0  0
    1.3245   -5.0968   -0.0599 C   0  0  0  1  0  0  0  0  0  0  0  0
   -1.0829   -2.8661    1.4639 C   0  0  0  1  0  0  0  0  0  0  0  0
   -0.5263   -5.3043    1.2073 N   0  0  0  1  0  0  0  0  0  0  0  0
    0.4690   -1.4192    0.3095 C   0  0  0  1  0  0  0  0  0  0  0  0
    0.4954   -5.9909    0.5690 C   0  0  0  1  0  0  0  0  0  0  0  0
   -0.6691   -1.6045    1.1024 C   0  0  0  1  0  0  0  0  0  0  0  0
    1.8739   -0.0616   -0.4991 H   0  0  0  1  0  0  0  0  0  0  0  0
    0.2137    0.4761   -0.5922 H   0  0  0  1  0  0  0  0  0  0  0  0
    0.3337    1.2775    1.3753 H   0  0  0  1  0  0  0  0  0  0  0  0
    2.0474   -2.3348   -0.7256 H   0  0  0  1  0  0  0  0  0  0  0  0
    2.1664   -5.3263   -0.6258 H   0  0  0  1  0  0  0  0  0  0  0  0
   -1.9233   -3.0044    2.0608 H   0  0  0  1  0  0  0  0  0  0  0  0
   -1.2577   -5.7119    1.7165 H   0  0  0  1  0  0  0  0  0  0  0  0
    0.6148   -7.0240    0.5673 H   0  0  0  1  0  0  0  0  0  0  0  0
   -1.2103   -0.7763    1.4231 H   0  0  0  1  0  0  0  0  0  0  0  0
  1  2  1  0  0  0  0
  1  9  1  0  0  0  0
  1 12  1  0  0  0  0
  1 13  1  0  0  0  0
  2 14  1  0  0  0  0
  3  4  1  0  0  0  0
  3  5  2  0  0  0  0
  3  6  1  0  0  0  0
  4  7  2  0  0  0  0
  4  8  1  0  0  0  0
  5  9  1  0  0  0  0
  5 15  1  0  0  0  0
  6 10  2  0  0  0  0
  6 16  1  0  0  0  0
  7 11  1  0  0  0  0
  7 17  1  0  0  0  0
  8 10  1  0  0  0  0
  8 18  1  0  0  0  0
  9 11  2  0  0  0  0
 10 19  1  0  0  0  0
 11 20  1  0  0  0  0
M  END
> <ConfClashScore>
0 

> <ConfOneFourInteractionScore>
-1 

> <ConfScore>
-0.0495848 

> <ConfScorePBest>
0.0104635 

> <ConfTolerance>
0.0694719 

$$$$
﻿1H-Indole-5-methanol
 OpenBabel06142111183D
1075-25-8 Copyright (C) 2021 ACS
 20 21  0  0  0  0  0  0  0  0999 V2000
    0.8714    0.0060   -0.0123 C   0  0  0  1  0  0  0  0  0  0  0  0
    0.9082    0.1315   -1.4264 O   0  0  0  1  0  0  0  0  0  0  0  0
    0.8172   -3.7899    0.2153 C   0  0  0  1  0  0  0  0  0  0  0  0
   -0.3391   -3.9507    1.0061 C   0  0  0  1  0  0  0  0  0  0  0  0
    1.2180   -2.4908   -0.1251 C   0  0  0  1  0  0  0  0  0  0  0  0
    1.3257   -5.1007   -0.0582 C   0  0  0  1  0  0  0  0  0  0  0  0
   -1.0767   -2.8643    1.4654 C   0  0  0  1  0  0  0  0  0  0  0  0
   -0.5306   -5.3041    1.2019 N   0  0  0  1  0  0  0  0  0  0  0  0
    0.4859   -1.4205    0.3215 C   0  0  0  1  0  0  0  0  0  0  0  0
    0.4902   -5.9932    0.5647 C   0  0  0  1  0  0  0  0  0  0  0  0
   -0.6558   -1.6033    1.1098 C   0  0  0  1  0  0  0  0  0  0  0  0
    0.1479    0.6819    0.3933 H   0  0  0  1  0  0  0  0  0  0  0  0
    1.8352    0.2267    0.3968 H   0  0  0  1  0  0  0  0  0  0  0  0
    1.8186    0.0910   -1.7282 H   0  0  0  1  0  0  0  0  0  0  0  0
    2.0636   -2.3396   -0.7114 H   0  0  0  1  0  0  0  0  0  0  0  0
    2.1684   -5.3321   -0.6219 H   0  0  0  1  0  0  0  0  0  0  0  0
   -1.9198   -3.0008    2.0588 H   0  0  0  1  0  0  0  0  0  0  0  0
   -1.2656   -5.7101    1.7071 H   0  0  0  1  0  0  0  0  0  0  0  0
    0.6048   -7.0268    0.5597 H   0  0  0  1  0  0  0  0  0  0  0  0
   -1.1943   -0.7738    1.4317 H   0  0  0  1  0  0  0  0  0  0  0  0
  1  2  1  0  0  0  0
  1  9  1  0  0  0  0
  1 12  1  0  0  0  0
  1 13  1  0  0  0  0
  2 14  1  0  0  0  0
  3  4  1  0  0  0  0
  3  5  2  0  0  0  0
  3  6  1  0  0  0  0
  4  7  2  0  0  0  0
  4  8  1  0  0  0  0
  5  9  1  0  0  0  0
  5 15  1  0  0  0  0
  6 10  2  0  0  0  0
  6 16  1  0  0  0  0
  7 11  1  0  0  0  0
  7 17  1  0  0  0  0
  8 10  1  0  0  0  0
  8 18  1  0  0  0  0
  9 11  2  0  0  0  0
 10 19  1  0  0  0  0
 11 20  1  0  0  0  0
M  END
> <ConfClashScore>
0 

> <ConfOneFourInteractionScore>
-1 

> <ConfScore>
-0.0495848 

> <ConfScorePBest>
0.0103605 

> <ConfTolerance>
0.062093 

$$$$
﻿1H-Indole-5-methanol
 OpenBabel06142111183D
1075-25-8 Copyright (C) 2021 ACS
 20 21  0  0  0  0  0  0  0  0999 V2000
    0.8779   -0.0216   -0.0985 C   0  0  0  1  0  0  0  0  0  0  0  0
    0.6336    0.2120   -1.4778 O   0  0  0  1  0  0  0  0  0  0  0  0
    0.8182   -3.7857    0.2231 C   0  0  0  1  0  0  0  0  0  0  0  0
   -0.3407   -3.9505    1.0092 C   0  0  0  1  0  0  0  0  0  0  0  0
    1.2211   -2.4848   -0.1078 C   0  0  0  1  0  0  0  0  0  0  0  0
    1.3266   -5.0951   -0.0568 C   0  0  0  1  0  0  0  0  0  0  0  0
   -1.0790   -2.8665    1.4729 C   0  0  0  1  0  0  0  0  0  0  0  0
   -0.5338   -5.3050    1.1959 N   0  0  0  1  0  0  0  0  0  0  0  0
    0.4883   -1.4167    0.3431 C   0  0  0  1  0  0  0  0  0  0  0  0
    0.4885   -5.9908    0.5577 C   0  0  0  1  0  0  0  0  0  0  0  0
   -0.6561   -1.6036    1.1266 C   0  0  0  1  0  0  0  0  0  0  0  0
    0.3143    0.6865    0.4722 H   0  0  0  1  0  0  0  0  0  0  0  0
    1.9219    0.1169    0.0910 H   0  0  0  1  0  0  0  0  0  0  0  0
    1.4400    0.0607   -1.9762 H   0  0  0  1  0  0  0  0  0  0  0  0
    2.0687   -2.3306   -0.6904 H   0  0  0  1  0  0  0  0  0  0  0  0
    2.1710   -5.3236   -0.6193 H   0  0  0  1  0  0  0  0  0  0  0  0
   -1.9241   -3.0061    2.0628 H   0  0  0  1  0  0  0  0  0  0  0  0
   -1.2708   -5.7136    1.6961 H   0  0  0  1  0  0  0  0  0  0  0  0
    0.6024   -7.0245    0.5466 H   0  0  0  1  0  0  0  0  0  0  0  0
   -1.1950   -0.7758    1.4519 H   0  0  0  1  0  0  0  0  0  0  0  0
  1  2  1  0  0  0  0
  1  9  1  0  0  0  0
  1 12  1  0  0  0  0
  1 13  1  0  0  0  0
  2 14  1  0  0  0  0
  3  4  1  0  0  0  0
  3  5  2  0  0  0  0
  3  6  1  0  0  0  0
  4  7  2  0  0  0  0
  4  8  1  0  0  0  0
  5  9  1  0  0  0  0
  5 15  1  0  0  0  0
  6 10  2  0  0  0  0
  6 16  1  0  0  0  0
  7 11  1  0  0  0  0
  7 17  1  0  0  0  0
  8 10  1  0  0  0  0
  8 18  1  0  0  0  0
  9 11  2  0  0  0  0
 10 19  1  0  0  0  0
 11 20  1  0  0  0  0
M  END
> <ConfClashScore>
0 

> <ConfOneFourInteractionScore>
-1 

> <ConfScore>
-0.0495848 

> <ConfScorePBest>
0.0102575 

> <ConfTolerance>
0.0603992 

$$$$
﻿1H-Indole-5-methanol
 OpenBabel06142111183D
1075-25-8 Copyright (C) 2021 ACS
 20 21  0  0  0  0  0  0  0  0999 V2000
    0.8714    0.0060   -0.0123 C   0  0  0  1  0  0  0  0  0  0  0  0
    0.8414    0.8066    1.1602 O   0  0  0  1  0  0  0  0  0  0  0  0
    0.8172   -3.7899    0.2153 C   0  0  0  1  0  0  0  0  0  0  0  0
   -0.3391   -3.9507    1.0061 C   0  0  0  1  0  0  0  0  0  0  0  0
    1.2180   -2.4908   -0.1251 C   0  0  0  1  0  0  0  0  0  0  0  0
    1.3257   -5.1007   -0.0582 C   0  0  0  1  0  0  0  0  0  0  0  0
   -1.0767   -2.8643    1.4654 C   0  0  0  1  0  0  0  0  0  0  0  0
   -0.5306   -5.3041    1.2019 N   0  0  0  1  0  0  0  0  0  0  0  0
    0.4859   -1.4205    0.3215 C   0  0  0  1  0  0  0  0  0  0  0  0
    0.4902   -5.9932    0.5647 C   0  0  0  1  0  0  0  0  0  0  0  0
   -0.6558   -1.6033    1.1098 C   0  0  0  1  0  0  0  0  0  0  0  0
    1.8590    0.0184   -0.4241 H   0  0  0  1  0  0  0  0  0  0  0  0
    0.1810    0.4008   -0.7281 H   0  0  0  1  0  0  0  0  0  0  0  0
   -0.0370    1.1770    1.2729 H   0  0  0  1  0  0  0  0  0  0  0  0
    2.0636   -2.3396   -0.7114 H   0  0  0  1  0  0  0  0  0  0  0  0
    2.1684   -5.3321   -0.6219 H   0  0  0  1  0  0  0  0  0  0  0  0
   -1.9198   -3.0008    2.0588 H   0  0  0  1  0  0  0  0  0  0  0  0
   -1.2656   -5.7101    1.7071 H   0  0  0  1  0  0  0  0  0  0  0  0
    0.6048   -7.0268    0.5597 H   0  0  0  1  0  0  0  0  0  0  0  0
   -1.1943   -0.7738    1.4317 H   0  0  0  1  0  0  0  0  0  0  0  0
  1  2  1  0  0  0  0
  1  9  1  0  0  0  0
  1 12  1  0  0  0  0
  1 13  1  0  0  0  0
  2 14  1  0  0  0  0
  3  4  1  0  0  0  0
  3  5  2  0  0  0  0
  3  6  1  0  0  0  0
  4  7  2  0  0  0  0
  4  8  1  0  0  0  0
  5  9  1  0  0  0  0
  5 15  1  0  0  0  0
  6 10  2  0  0  0  0
  6 16  1  0  0  0  0
  7 11  1  0  0  0  0
  7 17  1  0  0  0  0
  8 10  1  0  0  0  0
  8 18  1  0  0  0  0
  9 11  2  0  0  0  0
 10 19  1  0  0  0  0
 11 20  1  0  0  0  0
M  END
> <ConfClashScore>
0 

> <ConfOneFourInteractionScore>
-0.988242 

> <ConfScore>
-0.0495848 

> <ConfScorePBest>
0.0101545 

> <ConfTolerance>
0.060956 

$$$$
﻿1H-Indole-5-methanol
 OpenBabel06142111183D
1075-25-8 Copyright (C) 2021 ACS
 20 21  0  0  0  0  0  0  0  0999 V2000
    0.9072   -0.0225   -0.0353 C   0  0  0  1  0  0  0  0  0  0  0  0
    2.3051    0.1831    0.1070 O   0  0  0  1  0  0  0  0  0  0  0  0
    0.8148   -3.7862    0.2167 C   0  0  0  1  0  0  0  0  0  0  0  0
   -0.3411   -3.9501    1.0075 C   0  0  0  1  0  0  0  0  0  0  0  0
    1.2131   -2.4858   -0.1220 C   0  0  0  1  0  0  0  0  0  0  0  0
    1.3257   -5.0956   -0.0585 C   0  0  0  1  0  0  0  0  0  0  0  0
   -1.0808   -2.8657    1.4682 C   0  0  0  1  0  0  0  0  0  0  0  0
   -0.5300   -5.3041    1.2015 N   0  0  0  1  0  0  0  0  0  0  0  0
    0.4790   -1.4175    0.3261 C   0  0  0  1  0  0  0  0  0  0  0  0
    0.4920   -5.9905    0.5633 C   0  0  0  1  0  0  0  0  0  0  0  0
   -0.6623   -1.6035    1.1142 C   0  0  0  1  0  0  0  0  0  0  0  0
    0.6372    0.1639   -1.0538 H   0  0  0  1  0  0  0  0  0  0  0  0
    0.3946    0.6673    0.6021 H   0  0  0  1  0  0  0  0  0  0  0  0
    2.5164    0.3192    1.0335 H   0  0  0  1  0  0  0  0  0  0  0  0
    2.0583   -2.3323   -0.7082 H   0  0  0  1  0  0  0  0  0  0  0  0
    2.1688   -5.3246   -0.6226 H   0  0  0  1  0  0  0  0  0  0  0  0
   -1.9235   -3.0046    2.0616 H   0  0  0  1  0  0  0  0  0  0  0  0
   -1.2642   -5.7122    1.7062 H   0  0  0  1  0  0  0  0  0  0  0  0
    0.6086   -7.0239    0.5569 H   0  0  0  1  0  0  0  0  0  0  0  0
   -1.2023   -0.7754    1.4372 H   0  0  0  1  0  0  0  0  0  0  0  0
  1  2  1  0  0  0  0
  1  9  1  0  0  0  0
  1 12  1  0  0  0  0
  1 13  1  0  0  0  0
  2 14  1  0  0  0  0
  3  4  1  0  0  0  0
  3  5  2  0  0  0  0
  3  6  1  0  0  0  0
  4  7  2  0  0  0  0
  4  8  1  0  0  0  0
  5  9  1  0  0  0  0
  5 15  1  0  0  0  0
  6 10  2  0  0  0  0
  6 16  1  0  0  0  0
  7 11  1  0  0  0  0
  7 17  1  0  0  0  0
  8 10  1  0  0  0  0
  8 18  1  0  0  0  0
  9 11  2  0  0  0  0
 10 19  1  0  0  0  0
 11 20  1  0  0  0  0
M  END
> <ConfClashScore>
0 

> <ConfOneFourInteractionScore>
-1 

> <ConfScore>
-0.0485088 

> <ConfScorePBest>
0.0100515 

> <ConfTolerance>
0.0335867 

$$$$
﻿1H-Indole-5-methanol
 OpenBabel06142111183D
1075-25-8 Copyright (C) 2021 ACS
 20 21  0  0  0  0  0  0  0  0999 V2000
    0.9069   -0.0234   -0.0351 C   0  0  0  1  0  0  0  0  0  0  0  0
    2.3189   -0.0229   -0.1869 O   0  0  0  1  0  0  0  0  0  0  0  0
    0.8148   -3.7861    0.2167 C   0  0  0  1  0  0  0  0  0  0  0  0
   -0.3411   -3.9501    1.0075 C   0  0  0  1  0  0  0  0  0  0  0  0
    1.2131   -2.4858   -0.1220 C   0  0  0  1  0  0  0  0  0  0  0  0
    1.3257   -5.0955   -0.0585 C   0  0  0  1  0  0  0  0  0  0  0  0
   -1.0807   -2.8657    1.4682 C   0  0  0  1  0  0  0  0  0  0  0  0
   -0.5300   -5.3041    1.2015 N   0  0  0  1  0  0  0  0  0  0  0  0
    0.4790   -1.4174    0.3260 C   0  0  0  1  0  0  0  0  0  0  0  0
    0.4920   -5.9904    0.5633 C   0  0  0  1  0  0  0  0  0  0  0  0
   -0.6623   -1.6034    1.1142 C   0  0  0  1  0  0  0  0  0  0  0  0
    0.4431    0.2723   -0.9528 H   0  0  0  1  0  0  0  0  0  0  0  0
    0.6253    0.6556    0.7425 H   0  0  0  1  0  0  0  0  0  0  0  0
    2.7284    0.2843    0.6252 H   0  0  0  1  0  0  0  0  0  0  0  0
    2.0583   -2.3323   -0.7082 H   0  0  0  1  0  0  0  0  0  0  0  0
    2.1688   -5.3246   -0.6226 H   0  0  0  1  0  0  0  0  0  0  0  0
   -1.9235   -3.0046    2.0616 H   0  0  0  1  0  0  0  0  0  0  0  0
   -1.2642   -5.7121    1.7062 H   0  0  0  1  0  0  0  0  0  0  0  0
    0.6086   -7.0238    0.5569 H   0  0  0  1  0  0  0  0  0  0  0  0
   -1.2022   -0.7754    1.4372 H   0  0  0  1  0  0  0  0  0  0  0  0
  1  2  1  0  0  0  0
  1  9  1  0  0  0  0
  1 12  1  0  0  0  0
  1 13  1  0  0  0  0
  2 14  1  0  0  0  0
  3  4  1  0  0  0  0
  3  5  2  0  0  0  0
  3  6  1  0  0  0  0
  4  7  2  0  0  0  0
  4  8  1  0  0  0  0
  5  9  1  0  0  0  0
  5 15  1  0  0  0  0
  6 10  2  0  0  0  0
  6 16  1  0  0  0  0
  7 11  1  0  0  0  0
  7 17  1  0  0  0  0
  8 10  1  0  0  0  0
  8 18  1  0  0  0  0
  9 11  2  0  0  0  0
 10 19  1  0  0  0  0
 11 20  1  0  0  0  0
M  END
> <ConfClashScore>
0 

> <ConfOneFourInteractionScore>
-0.988242 

> <ConfScore>
-0.0485088 

> <ConfScorePBest>
0.0099485 

> <ConfTolerance>
0.0188203 

$$$$
﻿1H-Indole-5-methanol
 OpenBabel06142111183D
1075-25-8 Copyright (C) 2021 ACS
 20 21  0  0  0  0  0  0  0  0999 V2000
    0.9065   -0.0247   -0.0347 C   0  0  0  1  0  0  0  0  0  0  0  0
    2.3019    0.0048   -0.2971 O   0  0  0  1  0  0  0  0  0  0  0  0
    0.8148   -3.7860    0.2167 C   0  0  0  1  0  0  0  0  0  0  0  0
   -0.3411   -3.9500    1.0075 C   0  0  0  1  0  0  0  0  0  0  0  0
    1.2132   -2.4857   -0.1220 C   0  0  0  1  0  0  0  0  0  0  0  0
    1.3257   -5.0954   -0.0585 C   0  0  0  1  0  0  0  0  0  0  0  0
   -1.0807   -2.8656    1.4682 C   0  0  0  1  0  0  0  0  0  0  0  0
   -0.5300   -5.3040    1.2014 N   0  0  0  1  0  0  0  0  0  0  0  0
    0.4791   -1.4174    0.3260 C   0  0  0  1  0  0  0  0  0  0  0  0
    0.4920   -5.9903    0.5633 C   0  0  0  1  0  0  0  0  0  0  0  0
   -0.6622   -1.6033    1.1142 C   0  0  0  1  0  0  0  0  0  0  0  0
    0.3756    0.2934   -0.9076 H   0  0  0  1  0  0  0  0  0  0  0  0
    0.6854    0.6350    0.7781 H   0  0  0  1  0  0  0  0  0  0  0  0
    2.7762    0.2045    0.5133 H   0  0  0  1  0  0  0  0  0  0  0  0
    2.0584   -2.3322   -0.7083 H   0  0  0  1  0  0  0  0  0  0  0  0
    2.1688   -5.3245   -0.6227 H   0  0  0  1  0  0  0  0  0  0  0  0
   -1.9235   -3.0045    2.0616 H   0  0  0  1  0  0  0  0  0  0  0  0
   -1.2642   -5.7120    1.7062 H   0  0  0  1  0  0  0  0  0  0  0  0
    0.6086   -7.0237    0.5569 H   0  0  0  1  0  0  0  0  0  0  0  0
   -1.2022   -0.7753    1.4372 H   0  0  0  1  0  0  0  0  0  0  0  0
  1  2  1  0  0  0  0
  1  9  1  0  0  0  0
  1 12  1  0  0  0  0
  1 13  1  0  0  0  0
  2 14  1  0  0  0  0
  3  4  1  0  0  0  0
  3  5  2  0  0  0  0
  3  6  1  0  0  0  0
  4  7  2  0  0  0  0
  4  8  1  0  0  0  0
  5  9  1  0  0  0  0
  5 15  1  0  0  0  0
  6 10  2  0  0  0  0
  6 16  1  0  0  0  0
  7 11  1  0  0  0  0
  7 17  1  0  0  0  0
  8 10  1  0  0  0  0
  8 18  1  0  0  0  0
  9 11  2  0  0  0  0
 10 19  1  0  0  0  0
 11 20  1  0  0  0  0
M  END
> <ConfClashScore>
0 

> <ConfOneFourInteractionScore>
-0.988242 

> <ConfScore>
-0.0485088 

> <ConfScorePBest>
0.0098455 

> <ConfTolerance>
0.0214708 

$$$$
﻿1H-Indole-5-methanol
 OpenBabel06142111183D
1075-25-8 Copyright (C) 2021 ACS
 20 21  0  0  0  0  0  0  0  0999 V2000
    0.9065   -0.0247   -0.0347 C   0  0  0  1  0  0  0  0  0  0  0  0
   -0.1486    0.8814   -0.2657 O   0  0  0  1  0  0  0  0  0  0  0  0
    0.8148   -3.7860    0.2167 C   0  0  0  1  0  0  0  0  0  0  0  0
   -0.3411   -3.9500    1.0075 C   0  0  0  1  0  0  0  0  0  0  0  0
    1.2132   -2.4857   -0.1220 C   0  0  0  1  0  0  0  0  0  0  0  0
    1.3257   -5.0954   -0.0585 C   0  0  0  1  0  0  0  0  0  0  0  0
   -1.0807   -2.8656    1.4682 C   0  0  0  1  0  0  0  0  0  0  0  0
   -0.5300   -5.3040    1.2014 N   0  0  0  1  0  0  0  0  0  0  0  0
    0.4791   -1.4174    0.3260 C   0  0  0  1  0  0  0  0  0  0  0  0
    0.4920   -5.9903    0.5633 C   0  0  0  1  0  0  0  0  0  0  0  0
   -0.6622   -1.6033    1.1142 C   0  0  0  1  0  0  0  0  0  0  0  0
    1.5027    0.3576    0.7673 H   0  0  0  1  0  0  0  0  0  0  0  0
    1.4979   -0.0792   -0.9248 H   0  0  0  1  0  0  0  0  0  0  0  0
   -0.3242    0.9353   -1.2080 H   0  0  0  1  0  0  0  0  0  0  0  0
    2.0584   -2.3322   -0.7083 H   0  0  0  1  0  0  0  0  0  0  0  0
    2.1688   -5.3245   -0.6227 H   0  0  0  1  0  0  0  0  0  0  0  0
   -1.9235   -3.0045    2.0616 H   0  0  0  1  0  0  0  0  0  0  0  0
   -1.2642   -5.7120    1.7062 H   0  0  0  1  0  0  0  0  0  0  0  0
    0.6086   -7.0237    0.5569 H   0  0  0  1  0  0  0  0  0  0  0  0
   -1.2022   -0.7753    1.4372 H   0  0  0  1  0  0  0  0  0  0  0  0
  1  2  1  0  0  0  0
  1  9  1  0  0  0  0
  1 12  1  0  0  0  0
  1 13  1  0  0  0  0
  2 14  1  0  0  0  0
  3  4  1  0  0  0  0
  3  5  2  0  0  0  0
  3  6  1  0  0  0  0
  4  7  2  0  0  0  0
  4  8  1  0  0  0  0
  5  9  1  0  0  0  0
  5 15  1  0  0  0  0
  6 10  2  0  0  0  0
  6 16  1  0  0  0  0
  7 11  1  0  0  0  0
  7 17  1  0  0  0  0
  8 10  1  0  0  0  0
  8 18  1  0  0  0  0
  9 11  2  0  0  0  0
 10 19  1  0  0  0  0
 11 20  1  0  0  0  0
M  END
> <ConfClashScore>
0 

> <ConfOneFourInteractionScore>
-0.988242 

> <ConfScore>
-0.0485088 

> <ConfScorePBest>
0.0097425 

> <ConfTolerance>
0.0244181 

$$$$
﻿1H-Indole-5-methanol
 OpenBabel06142111183D
1075-25-8 Copyright (C) 2021 ACS
 20 21  0  0  0  0  0  0  0  0999 V2000
    0.9417   -0.0092    0.0236 C   0  0  0  1  0  0  0  0  0  0  0  0
   -0.1638    0.8820    0.0065 O   0  0  0  1  0  0  0  0  0  0  0  0
    0.8109   -3.7875    0.2106 C   0  0  0  1  0  0  0  0  0  0  0  0
   -0.3419   -3.9507    1.0060 C   0  0  0  1  0  0  0  0  0  0  0  0
    1.2046   -2.4877   -0.1358 C   0  0  0  1  0  0  0  0  0  0  0  0
    1.3245   -5.0968   -0.0599 C   0  0  0  1  0  0  0  0  0  0  0  0
   -1.0829   -2.8661    1.4639 C   0  0  0  1  0  0  0  0  0  0  0  0
   -0.5263   -5.3043    1.2073 N   0  0  0  1  0  0  0  0  0  0  0  0
    0.4690   -1.4192    0.3095 C   0  0  0  1  0  0  0  0  0  0  0  0
    0.4954   -5.9909    0.5690 C   0  0  0  1  0  0  0  0  0  0  0  0
   -0.6691   -1.6045    1.1024 C   0  0  0  1  0  0  0  0  0  0  0  0
    1.6293    0.2946    0.7851 H   0  0  0  1  0  0  0  0  0  0  0  0
    1.4298    0.0141   -0.9283 H   0  0  0  1  0  0  0  0  0  0  0  0
   -0.5747    0.8662   -0.8609 H   0  0  0  1  0  0  0  0  0  0  0  0
    2.0474   -2.3348   -0.7256 H   0  0  0  1  0  0  0  0  0  0  0  0
    2.1664   -5.3263   -0.6258 H   0  0  0  1  0  0  0  0  0  0  0  0
   -1.9233   -3.0044    2.0608 H   0  0  0  1  0  0  0  0  0  0  0  0
   -1.2577   -5.7119    1.7165 H   0  0  0  1  0  0  0  0  0  0  0  0
    0.6148   -7.0240    0.5673 H   0  0  0  1  0  0  0  0  0  0  0  0
   -1.2103   -0.7763    1.4231 H   0  0  0  1  0  0  0  0  0  0  0  0
  1  2  1  0  0  0  0
  1  9  1  0  0  0  0
  1 12  1  0  0  0  0
  1 13  1  0  0  0  0
  2 14  1  0  0  0  0
  3  4  1  0  0  0  0
  3  5  2  0  0  0  0
  3  6  1  0  0  0  0
  4  7  2  0  0  0  0
  4  8  1  0  0  0  0
  5  9  1  0  0  0  0
  5 15  1  0  0  0  0
  6 10  2  0  0  0  0
  6 16  1  0  0  0  0
  7 11  1  0  0  0  0
  7 17  1  0  0  0  0
  8 10  1  0  0  0  0
  8 18  1  0  0  0  0
  9 11  2  0  0  0  0
 10 19  1  0  0  0  0
 11 20  1  0  0  0  0
M  END
> <ConfClashScore>
0 

> <ConfOneFourInteractionScore>
-0.988242 

> <ConfScore>
-0.0485088 

> <ConfScorePBest>
0.0096395 

> <ConfTolerance>
0.0265458 

$$$$
﻿1H-Indole-5-methanol
 OpenBabel06142111183D
1075-25-8 Copyright (C) 2021 ACS
 20 21  0  0  0  0  0  0  0  0999 V2000
    0.9068   -0.0238   -0.0350 C   0  0  0  1  0  0  0  0  0  0  0  0
   -0.2669    0.7707   -0.1931 O   0  0  0  1  0  0  0  0  0  0  0  0
    0.8148   -3.7861    0.2167 C   0  0  0  1  0  0  0  0  0  0  0  0
   -0.3411   -3.9500    1.0075 C   0  0  0  1  0  0  0  0  0  0  0  0
    1.2131   -2.4857   -0.1220 C   0  0  0  1  0  0  0  0  0  0  0  0
    1.3257   -5.0955   -0.0585 C   0  0  0  1  0  0  0  0  0  0  0  0
   -1.0807   -2.8656    1.4682 C   0  0  0  1  0  0  0  0  0  0  0  0
   -0.5300   -5.3040    1.2015 N   0  0  0  1  0  0  0  0  0  0  0  0
    0.4791   -1.4174    0.3260 C   0  0  0  1  0  0  0  0  0  0  0  0
    0.4920   -5.9904    0.5633 C   0  0  0  1  0  0  0  0  0  0  0  0
   -0.6623   -1.6034    1.1142 C   0  0  0  1  0  0  0  0  0  0  0  0
    1.5173    0.3818    0.7445 H   0  0  0  1  0  0  0  0  0  0  0  0
    1.4604   -0.0398   -0.9505 H   0  0  0  1  0  0  0  0  0  0  0  0
   -0.5091    0.8033   -1.1215 H   0  0  0  1  0  0  0  0  0  0  0  0
    2.0583   -2.3322   -0.7083 H   0  0  0  1  0  0  0  0  0  0  0  0
    2.1688   -5.3246   -0.6227 H   0  0  0  1  0  0  0  0  0  0  0  0
   -1.9235   -3.0045    2.0616 H   0  0  0  1  0  0  0  0  0  0  0  0
   -1.2642   -5.7121    1.7062 H   0  0  0  1  0  0  0  0  0  0  0  0
    0.6086   -7.0238    0.5569 H   0  0  0  1  0  0  0  0  0  0  0  0
   -1.2022   -0.7753    1.4372 H   0  0  0  1  0  0  0  0  0  0  0  0
  1  2  1  0  0  0  0
  1  9  1  0  0  0  0
  1 12  1  0  0  0  0
  1 13  1  0  0  0  0
  2 14  1  0  0  0  0
  3  4  1  0  0  0  0
  3  5  2  0  0  0  0
  3  6  1  0  0  0  0
  4  7  2  0  0  0  0
  4  8  1  0  0  0  0
  5  9  1  0  0  0  0
  5 15  1  0  0  0  0
  6 10  2  0  0  0  0
  6 16  1  0  0  0  0
  7 11  1  0  0  0  0
  7 17  1  0  0  0  0
  8 10  1  0  0  0  0
  8 18  1  0  0  0  0
  9 11  2  0  0  0  0
 10 19  1  0  0  0  0
 11 20  1  0  0  0  0
M  END
> <ConfClashScore>
0 

> <ConfOneFourInteractionScore>
-0.988242 

> <ConfScore>
-0.0485088 

> <ConfScorePBest>
0.0095365 

> <ConfTolerance>
0.0168502 

$$$$
﻿1H-Indole-5-methanol
 OpenBabel06142111183D
1075-25-8 Copyright (C) 2021 ACS
 20 21  0  0  0  0  0  0  0  0999 V2000
    0.9456   -0.0316   -0.0611 C   0  0  0  1  0  0  0  0  0  0  0  0
   -0.1854    0.8266   -0.0939 O   0  0  0  1  0  0  0  0  0  0  0  0
    0.8122   -3.7837    0.2184 C   0  0  0  1  0  0  0  0  0  0  0  0
   -0.3433   -3.9508    1.0090 C   0  0  0  1  0  0  0  0  0  0  0  0
    1.2081   -2.4822   -0.1188 C   0  0  0  1  0  0  0  0  0  0  0  0
    1.3255   -5.0919   -0.0585 C   0  0  0  1  0  0  0  0  0  0  0  0
   -1.0849   -2.8684    1.4712 C   0  0  0  1  0  0  0  0  0  0  0  0
   -0.5297   -5.3054    1.2013 N   0  0  0  1  0  0  0  0  0  0  0  0
    0.4721   -1.4158    0.3307 C   0  0  0  1  0  0  0  0  0  0  0  0
    0.4935   -5.9891    0.5622 C   0  0  0  1  0  0  0  0  0  0  0  0
   -0.6688   -1.6049    1.1188 C   0  0  0  1  0  0  0  0  0  0  0  0
    1.6526    0.3271    0.6576 H   0  0  0  1  0  0  0  0  0  0  0  0
    1.4041   -0.0648   -1.0273 H   0  0  0  1  0  0  0  0  0  0  0  0
   -0.6038    0.7724   -0.9562 H   0  0  0  1  0  0  0  0  0  0  0  0
    2.0529   -2.3264   -0.7049 H   0  0  0  1  0  0  0  0  0  0  0  0
    2.1690   -5.3186   -0.6231 H   0  0  0  1  0  0  0  0  0  0  0  0
   -1.9273   -3.0096    2.0645 H   0  0  0  1  0  0  0  0  0  0  0  0
   -1.2631   -5.7155    1.7057 H   0  0  0  1  0  0  0  0  0  0  0  0
    0.6120   -7.0223    0.5545 H   0  0  0  1  0  0  0  0  0  0  0  0
   -1.2103   -0.7783    1.4429 H   0  0  0  1  0  0  0  0  0  0  0  0
  1  2  1  0  0  0  0
  1  9  1  0  0  0  0
  1 12  1  0  0  0  0
  1 13  1  0  0  0  0
  2 14  1  0  0  0  0
  3  4  1  0  0  0  0
  3  5  2  0  0  0  0
  3  6  1  0  0  0  0
  4  7  2  0  0  0  0
  4  8  1  0  0  0  0
  5  9  1  0  0  0  0
  5 15  1  0  0  0  0
  6 10  2  0  0  0  0
  6 16  1  0  0  0  0
  7 11  1  0  0  0  0
  7 17  1  0  0  0  0
  8 10  1  0  0  0  0
  8 18  1  0  0  0  0
  9 11  2  0  0  0  0
 10 19  1  0  0  0  0
 11 20  1  0  0  0  0
M  END
> <ConfClashScore>
0 

> <ConfOneFourInteractionScore>
-0.988242 

> <ConfScore>
-0.0485088 

> <ConfScorePBest>
0.00943349 

> <ConfTolerance>
0.0222525 

$$$$
﻿1H-Indole-5-methanol
 OpenBabel06142111183D
1075-25-8 Copyright (C) 2021 ACS
 20 21  0  0  0  0  0  0  0  0999 V2000
    0.9456   -0.0316   -0.0611 C   0  0  0  1  0  0  0  0  0  0  0  0
   -0.1179    0.8795    0.1746 O   0  0  0  1  0  0  0  0  0  0  0  0
    0.8122   -3.7837    0.2184 C   0  0  0  1  0  0  0  0  0  0  0  0
   -0.3433   -3.9508    1.0090 C   0  0  0  1  0  0  0  0  0  0  0  0
    1.2081   -2.4822   -0.1188 C   0  0  0  1  0  0  0  0  0  0  0  0
    1.3255   -5.0919   -0.0585 C   0  0  0  1  0  0  0  0  0  0  0  0
   -1.0849   -2.8684    1.4712 C   0  0  0  1  0  0  0  0  0  0  0  0
   -0.5297   -5.3054    1.2013 N   0  0  0  1  0  0  0  0  0  0  0  0
    0.4721   -1.4158    0.3307 C   0  0  0  1  0  0  0  0  0  0  0  0
    0.4935   -5.9891    0.5622 C   0  0  0  1  0  0  0  0  0  0  0  0
   -0.6688   -1.6049    1.1188 C   0  0  0  1  0  0  0  0  0  0  0  0
    1.7953    0.2419    0.5290 H   0  0  0  1  0  0  0  0  0  0  0  0
    1.2115   -0.0188   -1.0974 H   0  0  0  1  0  0  0  0  0  0  0  0
   -0.6544    0.9577   -0.6177 H   0  0  0  1  0  0  0  0  0  0  0  0
    2.0529   -2.3264   -0.7049 H   0  0  0  1  0  0  0  0  0  0  0  0
    2.1690   -5.3186   -0.6231 H   0  0  0  1  0  0  0  0  0  0  0  0
   -1.9273   -3.0096    2.0645 H   0  0  0  1  0  0  0  0  0  0  0  0
   -1.2631   -5.7155    1.7057 H   0  0  0  1  0  0  0  0  0  0  0  0
    0.6120   -7.0223    0.5545 H   0  0  0  1  0  0  0  0  0  0  0  0
   -1.2103   -0.7783    1.4429 H   0  0  0  1  0  0  0  0  0  0  0  0
  1  2  1  0  0  0  0
  1  9  1  0  0  0  0
  1 12  1  0  0  0  0
  1 13  1  0  0  0  0
  2 14  1  0  0  0  0
  3  4  1  0  0  0  0
  3  5  2  0  0  0  0
  3  6  1  0  0  0  0
  4  7  2  0  0  0  0
  4  8  1  0  0  0  0
  5  9  1  0  0  0  0
  5 15  1  0  0  0  0
  6 10  2  0  0  0  0
  6 16  1  0  0  0  0
  7 11  1  0  0  0  0
  7 17  1  0  0  0  0
  8 10  1  0  0  0  0
  8 18  1  0  0  0  0
  9 11  2  0  0  0  0
 10 19  1  0  0  0  0
 11 20  1  0  0  0  0
M  END
> <ConfClashScore>
0 

> <ConfOneFourInteractionScore>
-0.988242 

> <ConfScore>
-0.0485088 

> <ConfScorePBest>
0.00933049 

> <ConfTolerance>
0.0340077 

$$$$
﻿1H-Indole-5-methanol
 OpenBabel06142111183D
1075-25-8 Copyright (C) 2021 ACS
 20 21  0  0  0  0  0  0  0  0999 V2000
    0.9065   -0.0247   -0.0347 C   0  0  0  1  0  0  0  0  0  0  0  0
    2.2712   -0.0196   -0.4277 O   0  0  0  1  0  0  0  0  0  0  0  0
    0.8148   -3.7860    0.2167 C   0  0  0  1  0  0  0  0  0  0  0  0
   -0.3411   -3.9500    1.0075 C   0  0  0  1  0  0  0  0  0  0  0  0
    1.2132   -2.4857   -0.1220 C   0  0  0  1  0  0  0  0  0  0  0  0
    1.3257   -5.0954   -0.0585 C   0  0  0  1  0  0  0  0  0  0  0  0
   -1.0807   -2.8656    1.4682 C   0  0  0  1  0  0  0  0  0  0  0  0
   -0.5300   -5.3040    1.2014 N   0  0  0  1  0  0  0  0  0  0  0  0
    0.4791   -1.4174    0.3260 C   0  0  0  1  0  0  0  0  0  0  0  0
    0.4920   -5.9903    0.5633 C   0  0  0  1  0  0  0  0  0  0  0  0
   -0.6622   -1.6033    1.1142 C   0  0  0  1  0  0  0  0  0  0  0  0
    0.3040    0.3319   -0.8439 H   0  0  0  1  0  0  0  0  0  0  0  0
    0.7803    0.6150    0.8136 H   0  0  0  1  0  0  0  0  0  0  0  0
    2.8272    0.0949    0.3464 H   0  0  0  1  0  0  0  0  0  0  0  0
    2.0584   -2.3322   -0.7083 H   0  0  0  1  0  0  0  0  0  0  0  0
    2.1688   -5.3245   -0.6227 H   0  0  0  1  0  0  0  0  0  0  0  0
   -1.9235   -3.0045    2.0616 H   0  0  0  1  0  0  0  0  0  0  0  0
   -1.2642   -5.7120    1.7062 H   0  0  0  1  0  0  0  0  0  0  0  0
    0.6086   -7.0237    0.5569 H   0  0  0  1  0  0  0  0  0  0  0  0
   -1.2022   -0.7753    1.4372 H   0  0  0  1  0  0  0  0  0  0  0  0
  1  2  1  0  0  0  0
  1  9  1  0  0  0  0
  1 12  1  0  0  0  0
  1 13  1  0  0  0  0
  2 14  1  0  0  0  0
  3  4  1  0  0  0  0
  3  5  2  0  0  0  0
  3  6  1  0  0  0  0
  4  7  2  0  0  0  0
  4  8  1  0  0  0  0
  5  9  1  0  0  0  0
  5 15  1  0  0  0  0
  6 10  2  0  0  0  0
  6 16  1  0  0  0  0
  7 11  1  0  0  0  0
  7 17  1  0  0  0  0
  8 10  1  0  0  0  0
  8 18  1  0  0  0  0
  9 11  2  0  0  0  0
 10 19  1  0  0  0  0
 11 20  1  0  0  0  0
M  END
> <ConfClashScore>
0 

> <ConfOneFourInteractionScore>
-0.988242 

> <ConfScore>
-0.0485088 

> <ConfScorePBest>
0.00922749 

> <ConfTolerance>
0.0285996 

$$$$
﻿1H-Indole-5-methanol
 OpenBabel06142111183D
1075-25-8 Copyright (C) 2021 ACS
 20 21  0  0  0  0  0  0  0  0999 V2000
    0.9456   -0.0316   -0.0611 C   0  0  0  1  0  0  0  0  0  0  0  0
   -0.1223    0.8532   -0.3719 O   0  0  0  1  0  0  0  0  0  0  0  0
    0.8122   -3.7837    0.2184 C   0  0  0  1  0  0  0  0  0  0  0  0
   -0.3433   -3.9508    1.0090 C   0  0  0  1  0  0  0  0  0  0  0  0
    1.2081   -2.4822   -0.1188 C   0  0  0  1  0  0  0  0  0  0  0  0
    1.3255   -5.0919   -0.0585 C   0  0  0  1  0  0  0  0  0  0  0  0
   -1.0849   -2.8684    1.4712 C   0  0  0  1  0  0  0  0  0  0  0  0
   -0.5297   -5.3054    1.2013 N   0  0  0  1  0  0  0  0  0  0  0  0
    0.4721   -1.4158    0.3307 C   0  0  0  1  0  0  0  0  0  0  0  0
    0.4935   -5.9891    0.5622 C   0  0  0  1  0  0  0  0  0  0  0  0
   -0.6688   -1.6049    1.1188 C   0  0  0  1  0  0  0  0  0  0  0  0
    1.5040    0.3809    0.7532 H   0  0  0  1  0  0  0  0  0  0  0  0
    1.5777   -0.1180   -0.9201 H   0  0  0  1  0  0  0  0  0  0  0  0
   -0.3216    0.7981   -1.3094 H   0  0  0  1  0  0  0  0  0  0  0  0
    2.0529   -2.3264   -0.7049 H   0  0  0  1  0  0  0  0  0  0  0  0
    2.1690   -5.3186   -0.6231 H   0  0  0  1  0  0  0  0  0  0  0  0
   -1.9273   -3.0096    2.0645 H   0  0  0  1  0  0  0  0  0  0  0  0
   -1.2631   -5.7155    1.7057 H   0  0  0  1  0  0  0  0  0  0  0  0
    0.6120   -7.0223    0.5545 H   0  0  0  1  0  0  0  0  0  0  0  0
   -1.2103   -0.7783    1.4429 H   0  0  0  1  0  0  0  0  0  0  0  0
  1  2  1  0  0  0  0
  1  9  1  0  0  0  0
  1 12  1  0  0  0  0
  1 13  1  0  0  0  0
  2 14  1  0  0  0  0
  3  4  1  0  0  0  0
  3  5  2  0  0  0  0
  3  6  1  0  0  0  0
  4  7  2  0  0  0  0
  4  8  1  0  0  0  0
  5  9  1  0  0  0  0
  5 15  1  0  0  0  0
  6 10  2  0  0  0  0
  6 16  1  0  0  0  0
  7 11  1  0  0  0  0
  7 17  1  0  0  0  0
  8 10  1  0  0  0  0
  8 18  1  0  0  0  0
  9 11  2  0  0  0  0
 10 19  1  0  0  0  0
 11 20  1  0  0  0  0
M  END
> <ConfClashScore>
0 

> <ConfOneFourInteractionScore>
-0.988242 

> <ConfScore>
-0.0485088 

> <ConfScorePBest>
0.00912449 

> <ConfTolerance>
0.0365348 

$$$$
﻿1H-Indole-5-methanol
 OpenBabel06142111183D
1075-25-8 Copyright (C) 2021 ACS
 20 21  0  0  0  0  0  0  0  0999 V2000
    0.9069   -0.0234   -0.0351 C   0  0  0  1  0  0  0  0  0  0  0  0
    2.3259    0.0012   -0.0855 O   0  0  0  1  0  0  0  0  0  0  0  0
    0.8148   -3.7861    0.2167 C   0  0  0  1  0  0  0  0  0  0  0  0
   -0.3411   -3.9501    1.0075 C   0  0  0  1  0  0  0  0  0  0  0  0
    1.2131   -2.4858   -0.1220 C   0  0  0  1  0  0  0  0  0  0  0  0
    1.3257   -5.0955   -0.0585 C   0  0  0  1  0  0  0  0  0  0  0  0
   -1.0807   -2.8657    1.4682 C   0  0  0  1  0  0  0  0  0  0  0  0
   -0.5300   -5.3041    1.2015 N   0  0  0  1  0  0  0  0  0  0  0  0
    0.4790   -1.4174    0.3260 C   0  0  0  1  0  0  0  0  0  0  0  0
    0.4920   -5.9904    0.5633 C   0  0  0  1  0  0  0  0  0  0  0  0
   -0.6623   -1.6034    1.1142 C   0  0  0  1  0  0  0  0  0  0  0  0
    0.5051    0.2436   -0.9901 H   0  0  0  1  0  0  0  0  0  0  0  0
    0.5581    0.6664    0.7047 H   0  0  0  1  0  0  0  0  0  0  0  0
    2.6742    0.2008    0.7865 H   0  0  0  1  0  0  0  0  0  0  0  0
    2.0583   -2.3323   -0.7082 H   0  0  0  1  0  0  0  0  0  0  0  0
    2.1688   -5.3246   -0.6226 H   0  0  0  1  0  0  0  0  0  0  0  0
   -1.9235   -3.0046    2.0616 H   0  0  0  1  0  0  0  0  0  0  0  0
   -1.2642   -5.7121    1.7062 H   0  0  0  1  0  0  0  0  0  0  0  0
    0.6086   -7.0238    0.5569 H   0  0  0  1  0  0  0  0  0  0  0  0
   -1.2022   -0.7754    1.4372 H   0  0  0  1  0  0  0  0  0  0  0  0
  1  2  1  0  0  0  0
  1  9  1  0  0  0  0
  1 12  1  0  0  0  0
  1 13  1  0  0  0  0
  2 14  1  0  0  0  0
  3  4  1  0  0  0  0
  3  5  2  0  0  0  0
  3  6  1  0  0  0  0
  4  7  2  0  0  0  0
  4  8  1  0  0  0  0
  5  9  1  0  0  0  0
  5 15  1  0  0  0  0
  6 10  2  0  0  0  0
  6 16  1  0  0  0  0
  7 11  1  0  0  0  0
  7 17  1  0  0  0  0
  8 10  1  0  0  0  0
  8 18  1  0  0  0  0
  9 11  2  0  0  0  0
 10 19  1  0  0  0  0
 11 20  1  0  0  0  0
M  END
> <ConfClashScore>
0 

> <ConfOneFourInteractionScore>
-0.988242 

> <ConfScore>
-0.0485088 

> <ConfScorePBest>
0.00902149 

> <ConfTolerance>
0.0188811 

$$$$
﻿1H-Indole-5-methanol
 OpenBabel06142111183D
1075-25-8 Copyright (C) 2021 ACS
 20 21  0  0  0  0  0  0  0  0999 V2000
    0.8714    0.0060   -0.0123 C   0  0  0  1  0  0  0  0  0  0  0  0
   -0.2909    0.8166   -0.1049 O   0  0  0  1  0  0  0  0  0  0  0  0
    0.8172   -3.7899    0.2153 C   0  0  0  1  0  0  0  0  0  0  0  0
   -0.3391   -3.9507    1.0061 C   0  0  0  1  0  0  0  0  0  0  0  0
    1.2180   -2.4908   -0.1251 C   0  0  0  1  0  0  0  0  0  0  0  0
    1.3257   -5.1007   -0.0582 C   0  0  0  1  0  0  0  0  0  0  0  0
   -1.0767   -2.8643    1.4654 C   0  0  0  1  0  0  0  0  0  0  0  0
   -0.5306   -5.3041    1.2019 N   0  0  0  1  0  0  0  0  0  0  0  0
    0.4859   -1.4205    0.3215 C   0  0  0  1  0  0  0  0  0  0  0  0
    0.4902   -5.9932    0.5647 C   0  0  0  1  0  0  0  0  0  0  0  0
   -0.6558   -1.6033    1.1098 C   0  0  0  1  0  0  0  0  0  0  0  0
    1.5097    0.3891    0.7563 H   0  0  0  1  0  0  0  0  0  0  0  0
    1.3898    0.0226   -0.9483 H   0  0  0  1  0  0  0  0  0  0  0  0
   -0.6182    0.8057   -1.0073 H   0  0  0  1  0  0  0  0  0  0  0  0
    2.0636   -2.3396   -0.7114 H   0  0  0  1  0  0  0  0  0  0  0  0
    2.1684   -5.3321   -0.6219 H   0  0  0  1  0  0  0  0  0  0  0  0
   -1.9198   -3.0008    2.0588 H   0  0  0  1  0  0  0  0  0  0  0  0
   -1.2656   -5.7101    1.7071 H   0  0  0  1  0  0  0  0  0  0  0  0
    0.6048   -7.0268    0.5597 H   0  0  0  1  0  0  0  0  0  0  0  0
   -1.1943   -0.7738    1.4317 H   0  0  0  1  0  0  0  0  0  0  0  0
  1  2  1  0  0  0  0
  1  9  1  0  0  0  0
  1 12  1  0  0  0  0
  1 13  1  0  0  0  0
  2 14  1  0  0  0  0
  3  4  1  0  0  0  0
  3  5  2  0  0  0  0
  3  6  1  0  0  0  0
  4  7  2  0  0  0  0
  4  8  1  0  0  0  0
  5  9  1  0  0  0  0
  5 15  1  0  0  0  0
  6 10  2  0  0  0  0
  6 16  1  0  0  0  0
  7 11  1  0  0  0  0
  7 17  1  0  0  0  0
  8 10  1  0  0  0  0
  8 18  1  0  0  0  0
  9 11  2  0  0  0  0
 10 19  1  0  0  0  0
 11 20  1  0  0  0  0
M  END
> <ConfClashScore>
0 

> <ConfOneFourInteractionScore>
-0.988242 

> <ConfScore>
-0.0485088 

> <ConfScorePBest>
0.00891849 

> <ConfTolerance>
0.0291262 

$$$$
﻿1H-Indole-5-methanol
 OpenBabel06142111183D
1075-25-8 Copyright (C) 2021 ACS
 20 21  0  0  0  0  0  0  0  0999 V2000
    0.9065   -0.0247   -0.0347 C   0  0  0  1  0  0  0  0  0  0  0  0
   -0.2324    0.7861   -0.2840 O   0  0  0  1  0  0  0  0  0  0  0  0
    0.8148   -3.7860    0.2167 C   0  0  0  1  0  0  0  0  0  0  0  0
   -0.3411   -3.9500    1.0075 C   0  0  0  1  0  0  0  0  0  0  0  0
    1.2132   -2.4857   -0.1220 C   0  0  0  1  0  0  0  0  0  0  0  0
    1.3257   -5.0954   -0.0585 C   0  0  0  1  0  0  0  0  0  0  0  0
   -1.0807   -2.8656    1.4682 C   0  0  0  1  0  0  0  0  0  0  0  0
   -0.5300   -5.3040    1.2014 N   0  0  0  1  0  0  0  0  0  0  0  0
    0.4791   -1.4174    0.3260 C   0  0  0  1  0  0  0  0  0  0  0  0
    0.4920   -5.9903    0.5633 C   0  0  0  1  0  0  0  0  0  0  0  0
   -0.6622   -1.6033    1.1142 C   0  0  0  1  0  0  0  0  0  0  0  0
    1.4685    0.3936    0.7741 H   0  0  0  1  0  0  0  0  0  0  0  0
    1.5161   -0.0582   -0.9135 H   0  0  0  1  0  0  0  0  0  0  0  0
   -0.4535    0.7499   -1.2175 H   0  0  0  1  0  0  0  0  0  0  0  0
    2.0584   -2.3322   -0.7083 H   0  0  0  1  0  0  0  0  0  0  0  0
    2.1688   -5.3245   -0.6227 H   0  0  0  1  0  0  0  0  0  0  0  0
   -1.9235   -3.0045    2.0616 H   0  0  0  1  0  0  0  0  0  0  0  0
   -1.2642   -5.7120    1.7062 H   0  0  0  1  0  0  0  0  0  0  0  0
    0.6086   -7.0237    0.5569 H   0  0  0  1  0  0  0  0  0  0  0  0
   -1.2022   -0.7753    1.4372 H   0  0  0  1  0  0  0  0  0  0  0  0
  1  2  1  0  0  0  0
  1  9  1  0  0  0  0
  1 12  1  0  0  0  0
  1 13  1  0  0  0  0
  2 14  1  0  0  0  0
  3  4  1  0  0  0  0
  3  5  2  0  0  0  0
  3  6  1  0  0  0  0
  4  7  2  0  0  0  0
  4  8  1  0  0  0  0
  5  9  1  0  0  0  0
  5 15  1  0  0  0  0
  6 10  2  0  0  0  0
  6 16  1  0  0  0  0
  7 11  1  0  0  0  0
  7 17  1  0  0  0  0
  8 10  1  0  0  0  0
  8 18  1  0  0  0  0
  9 11  2  0  0  0  0
 10 19  1  0  0  0  0
 11 20  1  0  0  0  0
M  END
> <ConfClashScore>
0 

> <ConfOneFourInteractionScore>
-0.988242 

> <ConfScore>
-0.0485088 

> <ConfScorePBest>
0.00881549 

> <ConfTolerance>
0.0273492 

$$$$
﻿1H-Indole-5-methanol
 OpenBabel06142111183D
1075-25-8 Copyright (C) 2021 ACS
 20 21  0  0  0  0  0  0  0  0999 V2000
    0.9456   -0.0316   -0.0611 C   0  0  0  1  0  0  0  0  0  0  0  0
    2.3389   -0.1029   -0.3266 O   0  0  0  1  0  0  0  0  0  0  0  0
    0.8122   -3.7837    0.2184 C   0  0  0  1  0  0  0  0  0  0  0  0
   -0.3433   -3.9508    1.0090 C   0  0  0  1  0  0  0  0  0  0  0  0
    1.2081   -2.4822   -0.1188 C   0  0  0  1  0  0  0  0  0  0  0  0
    1.3255   -5.0919   -0.0585 C   0  0  0  1  0  0  0  0  0  0  0  0
   -1.0849   -2.8684    1.4712 C   0  0  0  1  0  0  0  0  0  0  0  0
   -0.5297   -5.3054    1.2013 N   0  0  0  1  0  0  0  0  0  0  0  0
    0.4721   -1.4158    0.3307 C   0  0  0  1  0  0  0  0  0  0  0  0
    0.4935   -5.9891    0.5622 C   0  0  0  1  0  0  0  0  0  0  0  0
   -0.6688   -1.6049    1.1188 C   0  0  0  1  0  0  0  0  0  0  0  0
    0.4255    0.2955   -0.9371 H   0  0  0  1  0  0  0  0  0  0  0  0
    0.7634    0.6545    0.7396 H   0  0  0  1  0  0  0  0  0  0  0  0
    2.8269   -0.0076    0.4945 H   0  0  0  1  0  0  0  0  0  0  0  0
    2.0529   -2.3264   -0.7049 H   0  0  0  1  0  0  0  0  0  0  0  0
    2.1690   -5.3186   -0.6231 H   0  0  0  1  0  0  0  0  0  0  0  0
   -1.9273   -3.0096    2.0645 H   0  0  0  1  0  0  0  0  0  0  0  0
   -1.2631   -5.7155    1.7057 H   0  0  0  1  0  0  0  0  0  0  0  0
    0.6120   -7.0223    0.5545 H   0  0  0  1  0  0  0  0  0  0  0  0
   -1.2103   -0.7783    1.4429 H   0  0  0  1  0  0  0  0  0  0  0  0
  1  2  1  0  0  0  0
  1  9  1  0  0  0  0
  1 12  1  0  0  0  0
  1 13  1  0  0  0  0
  2 14  1  0  0  0  0
  3  4  1  0  0  0  0
  3  5  2  0  0  0  0
  3  6  1  0  0  0  0
  4  7  2  0  0  0  0
  4  8  1  0  0  0  0
  5  9  1  0  0  0  0
  5 15  1  0  0  0  0
  6 10  2  0  0  0  0
  6 16  1  0  0  0  0
  7 11  1  0  0  0  0
  7 17  1  0  0  0  0
  8 10  1  0  0  0  0
  8 18  1  0  0  0  0
  9 11  2  0  0  0  0
 10 19  1  0  0  0  0
 11 20  1  0  0  0  0
M  END
> <ConfClashScore>
0 

> <ConfOneFourInteractionScore>
-0.988242 

> <ConfScore>
-0.0485088 

> <ConfScorePBest>
0.00871249 

> <ConfTolerance>
0.0490111 

$$$$
﻿1H-Indole-5-methanol
 OpenBabel06142111183D
1075-25-8 Copyright (C) 2021 ACS
 20 21  0  0  0  0  0  0  0  0999 V2000
    0.9456   -0.0316   -0.0611 C   0  0  0  1  0  0  0  0  0  0  0  0
   -0.1687    0.8468   -0.0024 O   0  0  0  1  0  0  0  0  0  0  0  0
    0.8122   -3.7837    0.2184 C   0  0  0  1  0  0  0  0  0  0  0  0
   -0.3433   -3.9508    1.0090 C   0  0  0  1  0  0  0  0  0  0  0  0
    1.2081   -2.4822   -0.1188 C   0  0  0  1  0  0  0  0  0  0  0  0
    1.3255   -5.0919   -0.0585 C   0  0  0  1  0  0  0  0  0  0  0  0
   -1.0849   -2.8684    1.4712 C   0  0  0  1  0  0  0  0  0  0  0  0
   -0.5297   -5.3054    1.2013 N   0  0  0  1  0  0  0  0  0  0  0  0
    0.4721   -1.4158    0.3307 C   0  0  0  1  0  0  0  0  0  0  0  0
    0.4935   -5.9891    0.5622 C   0  0  0  1  0  0  0  0  0  0  0  0
   -0.6688   -1.6049    1.1188 C   0  0  0  1  0  0  0  0  0  0  0  0
    1.7039    0.2983    0.6179 H   0  0  0  1  0  0  0  0  0  0  0  0
    1.3404   -0.0510   -1.0554 H   0  0  0  1  0  0  0  0  0  0  0  0
   -0.6365    0.8275   -0.8405 H   0  0  0  1  0  0  0  0  0  0  0  0
    2.0529   -2.3264   -0.7049 H   0  0  0  1  0  0  0  0  0  0  0  0
    2.1690   -5.3186   -0.6231 H   0  0  0  1  0  0  0  0  0  0  0  0
   -1.9273   -3.0096    2.0645 H   0  0  0  1  0  0  0  0  0  0  0  0
   -1.2631   -5.7155    1.7057 H   0  0  0  1  0  0  0  0  0  0  0  0
    0.6120   -7.0223    0.5545 H   0  0  0  1  0  0  0  0  0  0  0  0
   -1.2103   -0.7783    1.4429 H   0  0  0  1  0  0  0  0  0  0  0  0
  1  2  1  0  0  0  0
  1  9  1  0  0  0  0
  1 12  1  0  0  0  0
  1 13  1  0  0  0  0
  2 14  1  0  0  0  0
  3  4  1  0  0  0  0
  3  5  2  0  0  0  0
  3  6  1  0  0  0  0
  4  7  2  0  0  0  0
  4  8  1  0  0  0  0
  5  9  1  0  0  0  0
  5 15  1  0  0  0  0
  6 10  2  0  0  0  0
  6 16  1  0  0  0  0
  7 11  1  0  0  0  0
  7 17  1  0  0  0  0
  8 10  1  0  0  0  0
  8 18  1  0  0  0  0
  9 11  2  0  0  0  0
 10 19  1  0  0  0  0
 11 20  1  0  0  0  0
M  END
> <ConfClashScore>
0 

> <ConfOneFourInteractionScore>
-0.988242 

> <ConfScore>
-0.0485088 

> <ConfScorePBest>
0.00860949 

> <ConfTolerance>
0.0324848 

$$$$
﻿1H-Indole-5-methanol
 OpenBabel06142111183D
1075-25-8 Copyright (C) 2021 ACS
 20 21  0  0  0  0  0  0  0  0999 V2000
    0.9065   -0.0247   -0.0347 C   0  0  0  1  0  0  0  0  0  0  0  0
   -0.1363    0.9222   -0.0936 O   0  0  0  1  0  0  0  0  0  0  0  0
    0.8148   -3.7860    0.2167 C   0  0  0  1  0  0  0  0  0  0  0  0
   -0.3411   -3.9500    1.0075 C   0  0  0  1  0  0  0  0  0  0  0  0
    1.2132   -2.4857   -0.1220 C   0  0  0  1  0  0  0  0  0  0  0  0
    1.3257   -5.0954   -0.0585 C   0  0  0  1  0  0  0  0  0  0  0  0
   -1.0807   -2.8656    1.4682 C   0  0  0  1  0  0  0  0  0  0  0  0
   -0.5300   -5.3040    1.2014 N   0  0  0  1  0  0  0  0  0  0  0  0
    0.4791   -1.4174    0.3260 C   0  0  0  1  0  0  0  0  0  0  0  0
    0.4920   -5.9903    0.5633 C   0  0  0  1  0  0  0  0  0  0  0  0
   -0.6622   -1.6033    1.1142 C   0  0  0  1  0  0  0  0  0  0  0  0
    1.6136    0.3055    0.6973 H   0  0  0  1  0  0  0  0  0  0  0  0
    1.3770   -0.0603   -0.9951 H   0  0  0  1  0  0  0  0  0  0  0  0
   -0.5407    0.8999   -0.9640 H   0  0  0  1  0  0  0  0  0  0  0  0
    2.0584   -2.3322   -0.7083 H   0  0  0  1  0  0  0  0  0  0  0  0
    2.1688   -5.3245   -0.6227 H   0  0  0  1  0  0  0  0  0  0  0  0
   -1.9235   -3.0045    2.0616 H   0  0  0  1  0  0  0  0  0  0  0  0
   -1.2642   -5.7120    1.7062 H   0  0  0  1  0  0  0  0  0  0  0  0
    0.6086   -7.0237    0.5569 H   0  0  0  1  0  0  0  0  0  0  0  0
   -1.2022   -0.7753    1.4372 H   0  0  0  1  0  0  0  0  0  0  0  0
  1  2  1  0  0  0  0
  1  9  1  0  0  0  0
  1 12  1  0  0  0  0
  1 13  1  0  0  0  0
  2 14  1  0  0  0  0
  3  4  1  0  0  0  0
  3  5  2  0  0  0  0
  3  6  1  0  0  0  0
  4  7  2  0  0  0  0
  4  8  1  0  0  0  0
  5  9  1  0  0  0  0
  5 15  1  0  0  0  0
  6 10  2  0  0  0  0
  6 16  1  0  0  0  0
  7 11  1  0  0  0  0
  7 17  1  0  0  0  0
  8 10  1  0  0  0  0
  8 18  1  0  0  0  0
  9 11  2  0  0  0  0
 10 19  1  0  0  0  0
 11 20  1  0  0  0  0
M  END
> <ConfClashScore>
0 

> <ConfOneFourInteractionScore>
-0.988242 

> <ConfScore>
-0.0485088 

> <ConfScorePBest>
0.00850649 

> <ConfTolerance>
0.0361004 

$$$$
﻿1H-Indole-5-methanol
 OpenBabel06142111183D
1075-25-8 Copyright (C) 2021 ACS
 20 21  0  0  0  0  0  0  0  0999 V2000
    0.9417   -0.0092    0.0236 C   0  0  0  1  0  0  0  0  0  0  0  0
    2.3579    0.0192   -0.0792 O   0  0  0  1  0  0  0  0  0  0  0  0
    0.8109   -3.7875    0.2106 C   0  0  0  1  0  0  0  0  0  0  0  0
   -0.3419   -3.9507    1.0060 C   0  0  0  1  0  0  0  0  0  0  0  0
    1.2046   -2.4877   -0.1358 C   0  0  0  1  0  0  0  0  0  0  0  0
    1.3245   -5.0968   -0.0599 C   0  0  0  1  0  0  0  0  0  0  0  0
   -1.0829   -2.8661    1.4639 C   0  0  0  1  0  0  0  0  0  0  0  0
   -0.5263   -5.3043    1.2073 N   0  0  0  1  0  0  0  0  0  0  0  0
    0.4690   -1.4192    0.3095 C   0  0  0  1  0  0  0  0  0  0  0  0
    0.4954   -5.9909    0.5690 C   0  0  0  1  0  0  0  0  0  0  0  0
   -0.6691   -1.6045    1.1024 C   0  0  0  1  0  0  0  0  0  0  0  0
    0.5133    0.3277   -0.8971 H   0  0  0  1  0  0  0  0  0  0  0  0
    0.6318    0.6359    0.8190 H   0  0  0  1  0  0  0  0  0  0  0  0
    2.7415    0.0898    0.7979 H   0  0  0  1  0  0  0  0  0  0  0  0
    2.0474   -2.3348   -0.7256 H   0  0  0  1  0  0  0  0  0  0  0  0
    2.1664   -5.3263   -0.6258 H   0  0  0  1  0  0  0  0  0  0  0  0
   -1.9233   -3.0044    2.0608 H   0  0  0  1  0  0  0  0  0  0  0  0
   -1.2577   -5.7119    1.7165 H   0  0  0  1  0  0  0  0  0  0  0  0
    0.6148   -7.0240    0.5673 H   0  0  0  1  0  0  0  0  0  0  0  0
   -1.2103   -0.7763    1.4231 H   0  0  0  1  0  0  0  0  0  0  0  0
  1  2  1  0  0  0  0
  1  9  1  0  0  0  0
  1 12  1  0  0  0  0
  1 13  1  0  0  0  0
  2 14  1  0  0  0  0
  3  4  1  0  0  0  0
  3  5  2  0  0  0  0
  3  6  1  0  0  0  0
  4  7  2  0  0  0  0
  4  8  1  0  0  0  0
  5  9  1  0  0  0  0
  5 15  1  0  0  0  0
  6 10  2  0  0  0  0
  6 16  1  0  0  0  0
  7 11  1  0  0  0  0
  7 17  1  0  0  0  0
  8 10  1  0  0  0  0
  8 18  1  0  0  0  0
  9 11  2  0  0  0  0
 10 19  1  0  0  0  0
 11 20  1  0  0  0  0
M  END
> <ConfClashScore>
0 

> <ConfOneFourInteractionScore>
-0.988242 

> <ConfScore>
-0.0485088 

> <ConfScorePBest>
0.00840348 

> <ConfTolerance>
0.0353587 

$$$$
﻿1H-Indole-5-methanol
 OpenBabel06142111183D
1075-25-8 Copyright (C) 2021 ACS
 20 21  0  0  0  0  0  0  0  0999 V2000
    0.8714    0.0060   -0.0123 C   0  0  0  1  0  0  0  0  0  0  0  0
    2.2149    0.1277   -0.4599 O   0  0  0  1  0  0  0  0  0  0  0  0
    0.8172   -3.7899    0.2153 C   0  0  0  1  0  0  0  0  0  0  0  0
   -0.3391   -3.9507    1.0061 C   0  0  0  1  0  0  0  0  0  0  0  0
    1.2180   -2.4908   -0.1251 C   0  0  0  1  0  0  0  0  0  0  0  0
    1.3257   -5.1007   -0.0582 C   0  0  0  1  0  0  0  0  0  0  0  0
   -1.0767   -2.8643    1.4654 C   0  0  0  1  0  0  0  0  0  0  0  0
   -0.5306   -5.3041    1.2019 N   0  0  0  1  0  0  0  0  0  0  0  0
    0.4859   -1.4205    0.3215 C   0  0  0  1  0  0  0  0  0  0  0  0
    0.4902   -5.9932    0.5647 C   0  0  0  1  0  0  0  0  0  0  0  0
   -0.6558   -1.6033    1.1098 C   0  0  0  1  0  0  0  0  0  0  0  0
    0.2215    0.3631   -0.7836 H   0  0  0  1  0  0  0  0  0  0  0  0
    0.7486    0.6064    0.8647 H   0  0  0  1  0  0  0  0  0  0  0  0
    2.7683    0.4274    0.2651 H   0  0  0  1  0  0  0  0  0  0  0  0
    2.0636   -2.3396   -0.7114 H   0  0  0  1  0  0  0  0  0  0  0  0
    2.1684   -5.3321   -0.6219 H   0  0  0  1  0  0  0  0  0  0  0  0
   -1.9198   -3.0008    2.0588 H   0  0  0  1  0  0  0  0  0  0  0  0
   -1.2656   -5.7101    1.7071 H   0  0  0  1  0  0  0  0  0  0  0  0
    0.6048   -7.0268    0.5597 H   0  0  0  1  0  0  0  0  0  0  0  0
   -1.1943   -0.7738    1.4317 H   0  0  0  1  0  0  0  0  0  0  0  0
  1  2  1  0  0  0  0
  1  9  1  0  0  0  0
  1 12  1  0  0  0  0
  1 13  1  0  0  0  0
  2 14  1  0  0  0  0
  3  4  1  0  0  0  0
  3  5  2  0  0  0  0
  3  6  1  0  0  0  0
  4  7  2  0  0  0  0
  4  8  1  0  0  0  0
  5  9  1  0  0  0  0
  5 15  1  0  0  0  0
  6 10  2  0  0  0  0
  6 16  1  0  0  0  0
  7 11  1  0  0  0  0
  7 17  1  0  0  0  0
  8 10  1  0  0  0  0
  8 18  1  0  0  0  0
  9 11  2  0  0  0  0
 10 19  1  0  0  0  0
 11 20  1  0  0  0  0
M  END
> <ConfClashScore>
0 

> <ConfOneFourInteractionScore>
-0.988242 

> <ConfScore>
-0.0485088 

> <ConfScorePBest>
0.00830048 

> <ConfTolerance>
0.0538943 

$$$$
﻿1H-Indole-5-methanol
 OpenBabel06142111183D
1075-25-8 Copyright (C) 2021 ACS
 20 21  0  0  0  0  0  0  0  0999 V2000
    0.9101   -0.0126   -0.0378 C   0  0  0  1  0  0  0  0  0  0  0  0
   -0.2875    0.7853   -0.0121 O   0  0  0  1  0  0  0  0  0  0  0  0
    0.8146   -3.7868    0.2169 C   0  0  0  1  0  0  0  0  0  0  0  0
   -0.3413   -3.9508    1.0077 C   0  0  0  1  0  0  0  0  0  0  0  0
    1.2128   -2.4864   -0.1218 C   0  0  0  1  0  0  0  0  0  0  0  0
    1.3256   -5.0962   -0.0583 C   0  0  0  1  0  0  0  0  0  0  0  0
   -1.0810   -2.8665    1.4684 C   0  0  0  1  0  0  0  0  0  0  0  0
   -0.5301   -5.3048    1.2016 N   0  0  0  1  0  0  0  0  0  0  0  0
    0.4787   -1.4181    0.3263 C   0  0  0  1  0  0  0  0  0  0  0  0
    0.4919   -5.9911    0.5634 C   0  0  0  1  0  0  0  0  0  0  0  0
   -0.6626   -1.6042    1.1145 C   0  0  0  1  0  0  0  0  0  0  0  0
    1.6182    0.3558    0.6748 H   0  0  0  1  0  0  0  0  0  0  0  0
    1.3461    0.0017   -1.0148 H   0  0  0  1  0  0  0  0  0  0  0  0
   -0.8000    0.6197   -0.8068 H   0  0  0  1  0  0  0  0  0  0  0  0
    2.0580   -2.3328   -0.7080 H   0  0  0  1  0  0  0  0  0  0  0  0
    2.1687   -5.3252   -0.6225 H   0  0  0  1  0  0  0  0  0  0  0  0
   -1.9237   -3.0054    2.0618 H   0  0  0  1  0  0  0  0  0  0  0  0
   -1.2643   -5.7129    1.7064 H   0  0  0  1  0  0  0  0  0  0  0  0
    0.6085   -7.0245    0.5570 H   0  0  0  1  0  0  0  0  0  0  0  0
   -1.2026   -0.7762    1.4375 H   0  0  0  1  0  0  0  0  0  0  0  0
  1  2  1  0  0  0  0
  1  9  1  0  0  0  0
  1 12  1  0  0  0  0
  1 13  1  0  0  0  0
  2 14  1  0  0  0  0
  3  4  1  0  0  0  0
  3  5  2  0  0  0  0
  3  6  1  0  0  0  0
  4  7  2  0  0  0  0
  4  8  1  0  0  0  0
  5  9  1  0  0  0  0
  5 15  1  0  0  0  0
  6 10  2  0  0  0  0
  6 16  1  0  0  0  0
  7 11  1  0  0  0  0
  7 17  1  0  0  0  0
  8 10  1  0  0  0  0
  8 18  1  0  0  0  0
  9 11  2  0  0  0  0
 10 19  1  0  0  0  0
 11 20  1  0  0  0  0
M  END
> <ConfClashScore>
0 

> <ConfOneFourInteractionScore>
-0.988242 

> <ConfScore>
-0.0485088 

> <ConfScorePBest>
0.00819748 

> <ConfTolerance>
0.0644799 

$$$$
﻿1H-Indole-5-methanol
 OpenBabel06142111183D
1075-25-8 Copyright (C) 2021 ACS
 20 21  0  0  0  0  0  0  0  0999 V2000
    0.9065   -0.0247   -0.0347 C   0  0  0  1  0  0  0  0  0  0  0  0
    2.3096    0.0946   -0.2192 O   0  0  0  1  0  0  0  0  0  0  0  0
    0.8148   -3.7860    0.2167 C   0  0  0  1  0  0  0  0  0  0  0  0
   -0.3411   -3.9500    1.0075 C   0  0  0  1  0  0  0  0  0  0  0  0
    1.2132   -2.4857   -0.1220 C   0  0  0  1  0  0  0  0  0  0  0  0
    1.3257   -5.0954   -0.0585 C   0  0  0  1  0  0  0  0  0  0  0  0
   -1.0807   -2.8656    1.4682 C   0  0  0  1  0  0  0  0  0  0  0  0
   -0.5300   -5.3040    1.2014 N   0  0  0  1  0  0  0  0  0  0  0  0
    0.4791   -1.4174    0.3260 C   0  0  0  1  0  0  0  0  0  0  0  0
    0.4920   -5.9903    0.5633 C   0  0  0  1  0  0  0  0  0  0  0  0
   -0.6622   -1.6033    1.1142 C   0  0  0  1  0  0  0  0  0  0  0  0
    0.4180    0.2570   -0.9441 H   0  0  0  1  0  0  0  0  0  0  0  0
    0.6085    0.6377    0.7509 H   0  0  0  1  0  0  0  0  0  0  0  0
    2.7242    0.3242    0.6157 H   0  0  0  1  0  0  0  0  0  0  0  0
    2.0584   -2.3322   -0.7083 H   0  0  0  1  0  0  0  0  0  0  0  0
    2.1688   -5.3245   -0.6227 H   0  0  0  1  0  0  0  0  0  0  0  0
   -1.9235   -3.0045    2.0616 H   0  0  0  1  0  0  0  0  0  0  0  0
   -1.2642   -5.7120    1.7062 H   0  0  0  1  0  0  0  0  0  0  0  0
    0.6086   -7.0237    0.5569 H   0  0  0  1  0  0  0  0  0  0  0  0
   -1.2022   -0.7753    1.4372 H   0  0  0  1  0  0  0  0  0  0  0  0
  1  2  1  0  0  0  0
  1  9  1  0  0  0  0
  1 12  1  0  0  0  0
  1 13  1  0  0  0  0
  2 14  1  0  0  0  0
  3  4  1  0  0  0  0
  3  5  2  0  0  0  0
  3  6  1  0  0  0  0
  4  7  2  0  0  0  0
  4  8  1  0  0  0  0
  5  9  1  0  0  0  0
  5 15  1  0  0  0  0
  6 10  2  0  0  0  0
  6 16  1  0  0  0  0
  7 11  1  0  0  0  0
  7 17  1  0  0  0  0
  8 10  1  0  0  0  0
  8 18  1  0  0  0  0
  9 11  2  0  0  0  0
 10 19  1  0  0  0  0
 11 20  1  0  0  0  0
M  END
> <ConfClashScore>
0 

> <ConfOneFourInteractionScore>
-0.988242 

> <ConfScore>
-0.0485088 

> <ConfScorePBest>
0.00809448 

> <ConfTolerance>
0.027369 

$$$$
﻿1H-Indole-5-methanol
 OpenBabel06142111183D
1075-25-8 Copyright (C) 2021 ACS
 20 21  0  0  0  0  0  0  0  0999 V2000
    0.8704    0.0020   -0.0114 C   0  0  0  1  0  0  0  0  0  0  0  0
    2.2708    0.1750   -0.1721 O   0  0  0  1  0  0  0  0  0  0  0  0
    0.8172   -3.7897    0.2152 C   0  0  0  1  0  0  0  0  0  0  0  0
   -0.3390   -3.9504    1.0061 C   0  0  0  1  0  0  0  0  0  0  0  0
    1.2181   -2.4905   -0.1252 C   0  0  0  1  0  0  0  0  0  0  0  0
    1.3257   -5.1004   -0.0582 C   0  0  0  1  0  0  0  0  0  0  0  0
   -1.0766   -2.8640    1.4653 C   0  0  0  1  0  0  0  0  0  0  0  0
   -0.5305   -5.3038    1.2018 N   0  0  0  1  0  0  0  0  0  0  0  0
    0.4860   -1.4202    0.3214 C   0  0  0  1  0  0  0  0  0  0  0  0
    0.4903   -5.9929    0.5646 C   0  0  0  1  0  0  0  0  0  0  0  0
   -0.6557   -1.6030    1.1097 C   0  0  0  1  0  0  0  0  0  0  0  0
    0.3856    0.2817   -0.9234 H   0  0  0  1  0  0  0  0  0  0  0  0
    0.5368    0.6396    0.7805 H   0  0  0  1  0  0  0  0  0  0  0  0
    2.6872    0.2361    0.6908 H   0  0  0  1  0  0  0  0  0  0  0  0
    2.0636   -2.3394   -0.7115 H   0  0  0  1  0  0  0  0  0  0  0  0
    2.1684   -5.3318   -0.6220 H   0  0  0  1  0  0  0  0  0  0  0  0
   -1.9197   -3.0005    2.0588 H   0  0  0  1  0  0  0  0  0  0  0  0
   -1.2656   -5.7098    1.7070 H   0  0  0  1  0  0  0  0  0  0  0  0
    0.6048   -7.0266    0.5596 H   0  0  0  1  0  0  0  0  0  0  0  0
   -1.1942   -0.7735    1.4316 H   0  0  0  1  0  0  0  0  0  0  0  0
  1  2  1  0  0  0  0
  1  9  1  0  0  0  0
  1 12  1  0  0  0  0
  1 13  1  0  0  0  0
  2 14  1  0  0  0  0
  3  4  1  0  0  0  0
  3  5  2  0  0  0  0
  3  6  1  0  0  0  0
  4  7  2  0  0  0  0
  4  8  1  0  0  0  0
  5  9  1  0  0  0  0
  5 15  1  0  0  0  0
  6 10  2  0  0  0  0
  6 16  1  0  0  0  0
  7 11  1  0  0  0  0
  7 17  1  0  0  0  0
  8 10  1  0  0  0  0
  8 18  1  0  0  0  0
  9 11  2  0  0  0  0
 10 19  1  0  0  0  0
 11 20  1  0  0  0  0
M  END
> <ConfClashScore>
0 

> <ConfOneFourInteractionScore>
-0.988242 

> <ConfScore>
-0.0485088 

> <ConfScorePBest>
0.00799148 

> <ConfTolerance>
0.0501134 

$$$$
﻿1H-Indole-5-methanol
 OpenBabel06142111183D
1075-25-8 Copyright (C) 2021 ACS
 20 21  0  0  0  0  0  0  0  0999 V2000
    0.9417   -0.0092    0.0236 C   0  0  0  1  0  0  0  0  0  0  0  0
   -0.1029    0.9518    0.0954 O   0  0  0  1  0  0  0  0  0  0  0  0
    0.8109   -3.7875    0.2106 C   0  0  0  1  0  0  0  0  0  0  0  0
   -0.3419   -3.9507    1.0060 C   0  0  0  1  0  0  0  0  0  0  0  0
    1.2046   -2.4877   -0.1358 C   0  0  0  1  0  0  0  0  0  0  0  0
    1.3245   -5.0968   -0.0599 C   0  0  0  1  0  0  0  0  0  0  0  0
   -1.0829   -2.8661    1.4639 C   0  0  0  1  0  0  0  0  0  0  0  0
   -0.5263   -5.3043    1.2073 N   0  0  0  1  0  0  0  0  0  0  0  0
    0.4690   -1.4192    0.3095 C   0  0  0  1  0  0  0  0  0  0  0  0
    0.4954   -5.9909    0.5690 C   0  0  0  1  0  0  0  0  0  0  0  0
   -0.6691   -1.6045    1.1024 C   0  0  0  1  0  0  0  0  0  0  0  0
    1.6933    0.2501    0.7397 H   0  0  0  1  0  0  0  0  0  0  0  0
    1.3617    0.0166   -0.9602 H   0  0  0  1  0  0  0  0  0  0  0  0
   -0.3842    1.1863   -0.7920 H   0  0  0  1  0  0  0  0  0  0  0  0
    2.0474   -2.3348   -0.7256 H   0  0  0  1  0  0  0  0  0  0  0  0
    2.1664   -5.3263   -0.6258 H   0  0  0  1  0  0  0  0  0  0  0  0
   -1.9233   -3.0044    2.0608 H   0  0  0  1  0  0  0  0  0  0  0  0
   -1.2577   -5.7119    1.7165 H   0  0  0  1  0  0  0  0  0  0  0  0
    0.6148   -7.0240    0.5673 H   0  0  0  1  0  0  0  0  0  0  0  0
   -1.2103   -0.7763    1.4231 H   0  0  0  1  0  0  0  0  0  0  0  0
  1  2  1  0  0  0  0
  1  9  1  0  0  0  0
  1 12  1  0  0  0  0
  1 13  1  0  0  0  0
  2 14  1  0  0  0  0
  3  4  1  0  0  0  0
  3  5  2  0  0  0  0
  3  6  1  0  0  0  0
  4  7  2  0  0  0  0
  4  8  1  0  0  0  0
  5  9  1  0  0  0  0
  5 15  1  0  0  0  0
  6 10  2  0  0  0  0
  6 16  1  0  0  0  0
  7 11  1  0  0  0  0
  7 17  1  0  0  0  0
  8 10  1  0  0  0  0
  8 18  1  0  0  0  0
  9 11  2  0  0  0  0
 10 19  1  0  0  0  0
 11 20  1  0  0  0  0
M  END
> <ConfClashScore>
0 

> <ConfOneFourInteractionScore>
-0.988242 

> <ConfScore>
-0.0485088 

> <ConfScorePBest>
0.00788848 

> <ConfTolerance>
0.148108 

$$$$
﻿1H-Indole-5-methanol
 OpenBabel06142111183D
1075-25-8 Copyright (C) 2021 ACS
 20 21  0  0  0  0  0  0  0  0999 V2000
    0.8779   -0.0216   -0.0985 C   0  0  0  1  0  0  0  0  0  0  0  0
    2.3163    0.0152   -0.0615 O   0  0  0  1  0  0  0  0  0  0  0  0
    0.8182   -3.7857    0.2231 C   0  0  0  1  0  0  0  0  0  0  0  0
   -0.3407   -3.9505    1.0092 C   0  0  0  1  0  0  0  0  0  0  0  0
    1.2211   -2.4848   -0.1078 C   0  0  0  1  0  0  0  0  0  0  0  0
    1.3266   -5.0951   -0.0568 C   0  0  0  1  0  0  0  0  0  0  0  0
   -1.0790   -2.8665    1.4729 C   0  0  0  1  0  0  0  0  0  0  0  0
   -0.5338   -5.3050    1.1959 N   0  0  0  1  0  0  0  0  0  0  0  0
    0.4883   -1.4167    0.3431 C   0  0  0  1  0  0  0  0  0  0  0  0
    0.4885   -5.9908    0.5577 C   0  0  0  1  0  0  0  0  0  0  0  0
   -0.6561   -1.6036    1.1266 C   0  0  0  1  0  0  0  0  0  0  0  0
    0.5262    0.1663   -1.0914 H   0  0  0  1  0  0  0  0  0  0  0  0
    0.4695    0.7079    0.5692 H   0  0  0  1  0  0  0  0  0  0  0  0
    2.6045    0.4992    0.7159 H   0  0  0  1  0  0  0  0  0  0  0  0
    2.0687   -2.3306   -0.6904 H   0  0  0  1  0  0  0  0  0  0  0  0
    2.1710   -5.3236   -0.6193 H   0  0  0  1  0  0  0  0  0  0  0  0
   -1.9241   -3.0061    2.0628 H   0  0  0  1  0  0  0  0  0  0  0  0
   -1.2708   -5.7136    1.6961 H   0  0  0  1  0  0  0  0  0  0  0  0
    0.6024   -7.0245    0.5466 H   0  0  0  1  0  0  0  0  0  0  0  0
   -1.1950   -0.7758    1.4519 H   0  0  0  1  0  0  0  0  0  0  0  0
  1  2  1  0  0  0  0
  1  9  1  0  0  0  0
  1 12  1  0  0  0  0
  1 13  1  0  0  0  0
  2 14  1  0  0  0  0
  3  4  1  0  0  0  0
  3  5  2  0  0  0  0
  3  6  1  0  0  0  0
  4  7  2  0  0  0  0
  4  8  1  0  0  0  0
  5  9  1  0  0  0  0
  5 15  1  0  0  0  0
  6 10  2  0  0  0  0
  6 16  1  0  0  0  0
  7 11  1  0  0  0  0
  7 17  1  0  0  0  0
  8 10  1  0  0  0  0
  8 18  1  0  0  0  0
  9 11  2  0  0  0  0
 10 19  1  0  0  0  0
 11 20  1  0  0  0  0
M  END
> <ConfClashScore>
0 

> <ConfOneFourInteractionScore>
-0.988242 

> <ConfScore>
-0.0485088 

> <ConfScorePBest>
0.00778548 

> <ConfTolerance>
0.0853454 

$$$$
﻿1H-Indole-5-methanol
 OpenBabel06142111183D
1075-25-8 Copyright (C) 2021 ACS
 20 21  0  0  0  0  0  0  0  0999 V2000
    0.9065   -0.0247   -0.0347 C   0  0  0  1  0  0  0  0  0  0  0  0
    1.5090    0.7034    1.0114 O   0  0  0  1  0  0  0  0  0  0  0  0
    0.8148   -3.7860    0.2167 C   0  0  0  1  0  0  0  0  0  0  0  0
   -0.3411   -3.9500    1.0075 C   0  0  0  1  0  0  0  0  0  0  0  0
    1.2132   -2.4857   -0.1220 C   0  0  0  1  0  0  0  0  0  0  0  0
    1.3257   -5.0954   -0.0585 C   0  0  0  1  0  0  0  0  0  0  0  0
   -1.0807   -2.8656    1.4682 C   0  0  0  1  0  0  0  0  0  0  0  0
   -0.5300   -5.3040    1.2014 N   0  0  0  1  0  0  0  0  0  0  0  0
    0.4791   -1.4174    0.3260 C   0  0  0  1  0  0  0  0  0  0  0  0
    0.4920   -5.9903    0.5633 C   0  0  0  1  0  0  0  0  0  0  0  0
   -0.6622   -1.6033    1.1142 C   0  0  0  1  0  0  0  0  0  0  0  0
    1.6083   -0.0911   -0.8398 H   0  0  0  1  0  0  0  0  0  0  0  0
    0.0411    0.5145   -0.3589 H   0  0  0  1  0  0  0  0  0  0  0  0
    0.8295    1.1384    1.5318 H   0  0  0  1  0  0  0  0  0  0  0  0
    2.0584   -2.3322   -0.7083 H   0  0  0  1  0  0  0  0  0  0  0  0
    2.1688   -5.3245   -0.6227 H   0  0  0  1  0  0  0  0  0  0  0  0
   -1.9235   -3.0045    2.0616 H   0  0  0  1  0  0  0  0  0  0  0  0
   -1.2642   -5.7120    1.7062 H   0  0  0  1  0  0  0  0  0  0  0  0
    0.6086   -7.0237    0.5569 H   0  0  0  1  0  0  0  0  0  0  0  0
   -1.2022   -0.7753    1.4372 H   0  0  0  1  0  0  0  0  0  0  0  0
  1  2  1  0  0  0  0
  1  9  1  0  0  0  0
  1 12  1  0  0  0  0
  1 13  1  0  0  0  0
  2 14  1  0  0  0  0
  3  4  1  0  0  0  0
  3  5  2  0  0  0  0
  3  6  1  0  0  0  0
  4  7  2  0  0  0  0
  4  8  1  0  0  0  0
  5  9  1  0  0  0  0
  5 15  1  0  0  0  0
  6 10  2  0  0  0  0
  6 16  1  0  0  0  0
  7 11  1  0  0  0  0
  7 17  1  0  0  0  0
  8 10  1  0  0  0  0
  8 18  1  0  0  0  0
  9 11  2  0  0  0  0
 10 19  1  0  0  0  0
 11 20  1  0  0  0  0
M  END
> <ConfClashScore>
0 

> <ConfOneFourInteractionScore>
-1 

> <ConfScore>
-0.0386833 

> <ConfScorePBest>
0.00768248 

> <ConfTolerance>
0.0512712 

$$$$
﻿1H-Indole-5-methanol
 OpenBabel06142111183D
1075-25-8 Copyright (C) 2021 ACS
 20 21  0  0  0  0  0  0  0  0999 V2000
    0.8779   -0.0216   -0.0985 C   0  0  0  1  0  0  0  0  0  0  0  0
   -0.1060    0.5047   -0.9769 O   0  0  0  1  0  0  0  0  0  0  0  0
    0.8182   -3.7857    0.2231 C   0  0  0  1  0  0  0  0  0  0  0  0
   -0.3407   -3.9505    1.0092 C   0  0  0  1  0  0  0  0  0  0  0  0
    1.2211   -2.4848   -0.1078 C   0  0  0  1  0  0  0  0  0  0  0  0
    1.3266   -5.0951   -0.0568 C   0  0  0  1  0  0  0  0  0  0  0  0
   -1.0790   -2.8665    1.4729 C   0  0  0  1  0  0  0  0  0  0  0  0
   -0.5338   -5.3050    1.1959 N   0  0  0  1  0  0  0  0  0  0  0  0
    0.4883   -1.4167    0.3431 C   0  0  0  1  0  0  0  0  0  0  0  0
    0.4885   -5.9908    0.5577 C   0  0  0  1  0  0  0  0  0  0  0  0
   -0.6561   -1.6036    1.1266 C   0  0  0  1  0  0  0  0  0  0  0  0
    0.9604    0.6112    0.7603 H   0  0  0  1  0  0  0  0  0  0  0  0
    1.8196   -0.0609   -0.6050 H   0  0  0  1  0  0  0  0  0  0  0  0
    0.0754    0.2127   -1.8732 H   0  0  0  1  0  0  0  0  0  0  0  0
    2.0687   -2.3306   -0.6904 H   0  0  0  1  0  0  0  0  0  0  0  0
    2.1710   -5.3236   -0.6193 H   0  0  0  1  0  0  0  0  0  0  0  0
   -1.9241   -3.0061    2.0628 H   0  0  0  1  0  0  0  0  0  0  0  0
   -1.2708   -5.7136    1.6961 H   0  0  0  1  0  0  0  0  0  0  0  0
    0.6024   -7.0245    0.5466 H   0  0  0  1  0  0  0  0  0  0  0  0
   -1.1950   -0.7758    1.4519 H   0  0  0  1  0  0  0  0  0  0  0  0
  1  2  1  0  0  0  0
  1  9  1  0  0  0  0
  1 12  1  0  0  0  0
  1 13  1  0  0  0  0
  2 14  1  0  0  0  0
  3  4  1  0  0  0  0
  3  5  2  0  0  0  0
  3  6  1  0  0  0  0
  4  7  2  0  0  0  0
  4  8  1  0  0  0  0
  5  9  1  0  0  0  0
  5 15  1  0  0  0  0
  6 10  2  0  0  0  0
  6 16  1  0  0  0  0
  7 11  1  0  0  0  0
  7 17  1  0  0  0  0
  8 10  1  0  0  0  0
  8 18  1  0  0  0  0
  9 11  2  0  0  0  0
 10 19  1  0  0  0  0
 11 20  1  0  0  0  0
M  END
> <ConfClashScore>
0 

> <ConfOneFourInteractionScore>
-1 

> <ConfScore>
-0.0346313 

> <ConfScorePBest>
0.00757948 

> <ConfTolerance>
0.0337146 

$$$$
﻿1H-Indole-5-methanol
 OpenBabel06142111183D
1075-25-8 Copyright (C) 2021 ACS
 20 21  0  0  0  0  0  0  0  0999 V2000
    0.9069   -0.0234   -0.0351 C   0  0  0  1  0  0  0  0  0  0  0  0
   -0.0695    0.5868   -0.8663 O   0  0  0  1  0  0  0  0  0  0  0  0
    0.8148   -3.7861    0.2167 C   0  0  0  1  0  0  0  0  0  0  0  0
   -0.3411   -3.9501    1.0075 C   0  0  0  1  0  0  0  0  0  0  0  0
    1.2131   -2.4858   -0.1220 C   0  0  0  1  0  0  0  0  0  0  0  0
    1.3257   -5.0955   -0.0585 C   0  0  0  1  0  0  0  0  0  0  0  0
   -1.0807   -2.8657    1.4682 C   0  0  0  1  0  0  0  0  0  0  0  0
   -0.5300   -5.3041    1.2015 N   0  0  0  1  0  0  0  0  0  0  0  0
    0.4790   -1.4174    0.3260 C   0  0  0  1  0  0  0  0  0  0  0  0
    0.4920   -5.9904    0.5633 C   0  0  0  1  0  0  0  0  0  0  0  0
   -0.6623   -1.6034    1.1142 C   0  0  0  1  0  0  0  0  0  0  0  0
    1.0218    0.5540    0.8584 H   0  0  0  1  0  0  0  0  0  0  0  0
    1.8403   -0.0638   -0.5567 H   0  0  0  1  0  0  0  0  0  0  0  0
    0.1281    0.3957   -1.7861 H   0  0  0  1  0  0  0  0  0  0  0  0
    2.0583   -2.3323   -0.7082 H   0  0  0  1  0  0  0  0  0  0  0  0
    2.1688   -5.3246   -0.6226 H   0  0  0  1  0  0  0  0  0  0  0  0
   -1.9235   -3.0046    2.0616 H   0  0  0  1  0  0  0  0  0  0  0  0
   -1.2642   -5.7121    1.7062 H   0  0  0  1  0  0  0  0  0  0  0  0
    0.6086   -7.0238    0.5569 H   0  0  0  1  0  0  0  0  0  0  0  0
   -1.2022   -0.7754    1.4372 H   0  0  0  1  0  0  0  0  0  0  0  0
  1  2  1  0  0  0  0
  1  9  1  0  0  0  0
  1 12  1  0  0  0  0
  1 13  1  0  0  0  0
  2 14  1  0  0  0  0
  3  4  1  0  0  0  0
  3  5  2  0  0  0  0
  3  6  1  0  0  0  0
  4  7  2  0  0  0  0
  4  8  1  0  0  0  0
  5  9  1  0  0  0  0
  5 15  1  0  0  0  0
  6 10  2  0  0  0  0
  6 16  1  0  0  0  0
  7 11  1  0  0  0  0
  7 17  1  0  0  0  0
  8 10  1  0  0  0  0
  8 18  1  0  0  0  0
  9 11  2  0  0  0  0
 10 19  1  0  0  0  0
 11 20  1  0  0  0  0
M  END
> <ConfClashScore>
0 

> <ConfOneFourInteractionScore>
-1 

> <ConfScore>
-0.0346313 

> <ConfScorePBest>
0.00747648 

> <ConfTolerance>
0.0237471 

$$$$
﻿1H-Indole-5-methanol
 OpenBabel06142111183D
1075-25-8 Copyright (C) 2021 ACS
 20 21  0  0  0  0  0  0  0  0999 V2000
    0.9072   -0.0225   -0.0353 C   0  0  0  1  0  0  0  0  0  0  0  0
   -0.2078    0.6420   -0.6260 O   0  0  0  1  0  0  0  0  0  0  0  0
    0.8148   -3.7862    0.2167 C   0  0  0  1  0  0  0  0  0  0  0  0
   -0.3411   -3.9501    1.0075 C   0  0  0  1  0  0  0  0  0  0  0  0
    1.2131   -2.4858   -0.1220 C   0  0  0  1  0  0  0  0  0  0  0  0
    1.3257   -5.0956   -0.0585 C   0  0  0  1  0  0  0  0  0  0  0  0
   -1.0808   -2.8657    1.4682 C   0  0  0  1  0  0  0  0  0  0  0  0
   -0.5300   -5.3041    1.2015 N   0  0  0  1  0  0  0  0  0  0  0  0
    0.4790   -1.4175    0.3261 C   0  0  0  1  0  0  0  0  0  0  0  0
    0.4920   -5.9905    0.5633 C   0  0  0  1  0  0  0  0  0  0  0  0
   -0.6623   -1.6035    1.1142 C   0  0  0  1  0  0  0  0  0  0  0  0
    1.2174    0.5014    0.8446 H   0  0  0  1  0  0  0  0  0  0  0  0
    1.7179   -0.0608   -0.7326 H   0  0  0  1  0  0  0  0  0  0  0  0
   -0.1282    0.6133   -1.5823 H   0  0  0  1  0  0  0  0  0  0  0  0
    2.0583   -2.3323   -0.7082 H   0  0  0  1  0  0  0  0  0  0  0  0
    2.1688   -5.3246   -0.6226 H   0  0  0  1  0  0  0  0  0  0  0  0
   -1.9235   -3.0046    2.0616 H   0  0  0  1  0  0  0  0  0  0  0  0
   -1.2642   -5.7122    1.7062 H   0  0  0  1  0  0  0  0  0  0  0  0
    0.6086   -7.0239    0.5569 H   0  0  0  1  0  0  0  0  0  0  0  0
   -1.2023   -0.7754    1.4372 H   0  0  0  1  0  0  0  0  0  0  0  0
  1  2  1  0  0  0  0
  1  9  1  0  0  0  0
  1 12  1  0  0  0  0
  1 13  1  0  0  0  0
  2 14  1  0  0  0  0
  3  4  1  0  0  0  0
  3  5  2  0  0  0  0
  3  6  1  0  0  0  0
  4  7  2  0  0  0  0
  4  8  1  0  0  0  0
  5  9  1  0  0  0  0
  5 15  1  0  0  0  0
  6 10  2  0  0  0  0
  6 16  1  0  0  0  0
  7 11  1  0  0  0  0
  7 17  1  0  0  0  0
  8 10  1  0  0  0  0
  8 18  1  0  0  0  0
  9 11  2  0  0  0  0
 10 19  1  0  0  0  0
 11 20  1  0  0  0  0
M  END
> <ConfClashScore>
0 

> <ConfOneFourInteractionScore>
-1 

> <ConfScore>
-0.0346313 

> <ConfScorePBest>
0.00737347 

> <ConfTolerance>
0.0237959 

$$$$
﻿1H-Indole-5-methanol
 OpenBabel06142111183D
1075-25-8 Copyright (C) 2021 ACS
 20 21  0  0  0  0  0  0  0  0999 V2000
    0.9804   -0.0512   -0.0838 C   0  0  0  1  0  0  0  0  0  0  0  0
    0.0038    0.7270   -0.7601 O   0  0  0  1  0  0  0  0  0  0  0  0
    0.8098   -3.7807    0.2198 C   0  0  0  1  0  0  0  0  0  0  0  0
   -0.3453   -3.9508    1.0104 C   0  0  0  1  0  0  0  0  0  0  0  0
    1.2034   -2.4781   -0.1158 C   0  0  0  1  0  0  0  0  0  0  0  0
    1.3254   -5.0876   -0.0587 C   0  0  0  1  0  0  0  0  0  0  0  0
   -1.0888   -2.8702    1.4740 C   0  0  0  1  0  0  0  0  0  0  0  0
   -0.5292   -5.3059    1.2011 N   0  0  0  1  0  0  0  0  0  0  0  0
    0.4655   -1.4135    0.3351 C   0  0  0  1  0  0  0  0  0  0  0  0
    0.4951   -5.9870    0.5610 C   0  0  0  1  0  0  0  0  0  0  0  0
   -0.6749   -1.6056    1.1230 C   0  0  0  1  0  0  0  0  0  0  0  0
    1.2926    0.4792    0.7915 H   0  0  0  1  0  0  0  0  0  0  0  0
    1.8177   -0.1889   -0.7357 H   0  0  0  1  0  0  0  0  0  0  0  0
    0.1374    0.6558   -1.7081 H   0  0  0  1  0  0  0  0  0  0  0  0
    2.0479   -2.3201   -0.7018 H   0  0  0  1  0  0  0  0  0  0  0  0
    2.1692   -5.3122   -0.6236 H   0  0  0  1  0  0  0  0  0  0  0  0
   -1.9309   -3.0136    2.0672 H   0  0  0  1  0  0  0  0  0  0  0  0
   -1.2619   -5.7179    1.7050 H   0  0  0  1  0  0  0  0  0  0  0  0
    0.6154   -7.0200    0.5520 H   0  0  0  1  0  0  0  0  0  0  0  0
   -1.2178   -0.7803    1.4482 H   0  0  0  1  0  0  0  0  0  0  0  0
  1  2  1  0  0  0  0
  1  9  1  0  0  0  0
  1 12  1  0  0  0  0
  1 13  1  0  0  0  0
  2 14  1  0  0  0  0
  3  4  1  0  0  0  0
  3  5  2  0  0  0  0
  3  6  1  0  0  0  0
  4  7  2  0  0  0  0
  4  8  1  0  0  0  0
  5  9  1  0  0  0  0
  5 15  1  0  0  0  0
  6 10  2  0  0  0  0
  6 16  1  0  0  0  0
  7 11  1  0  0  0  0
  7 17  1  0  0  0  0
  8 10  1  0  0  0  0
  8 18  1  0  0  0  0
  9 11  2  0  0  0  0
 10 19  1  0  0  0  0
 11 20  1  0  0  0  0
M  END
> <ConfClashScore>
0 

> <ConfOneFourInteractionScore>
-1 

> <ConfScore>
-0.0346313 

> <ConfScorePBest>
0.00727047 

> <ConfTolerance>
0.0382159 

$$$$
﻿1H-Indole-5-methanol
 OpenBabel06142111183D
1075-25-8 Copyright (C) 2021 ACS
 20 21  0  0  0  0  0  0  0  0999 V2000
    0.9072   -0.0225   -0.0353 C   0  0  0  1  0  0  0  0  0  0  0  0
    2.2579    0.2512    0.3122 O   0  0  0  1  0  0  0  0  0  0  0  0
    0.8148   -3.7862    0.2167 C   0  0  0  1  0  0  0  0  0  0  0  0
   -0.3411   -3.9501    1.0075 C   0  0  0  1  0  0  0  0  0  0  0  0
    1.2131   -2.4858   -0.1220 C   0  0  0  1  0  0  0  0  0  0  0  0
    1.3257   -5.0956   -0.0585 C   0  0  0  1  0  0  0  0  0  0  0  0
   -1.0808   -2.8657    1.4682 C   0  0  0  1  0  0  0  0  0  0  0  0
   -0.5300   -5.3041    1.2015 N   0  0  0  1  0  0  0  0  0  0  0  0
    0.4790   -1.4175    0.3261 C   0  0  0  1  0  0  0  0  0  0  0  0
    0.4920   -5.9905    0.5633 C   0  0  0  1  0  0  0  0  0  0  0  0
   -0.6623   -1.6035    1.1142 C   0  0  0  1  0  0  0  0  0  0  0  0
    0.7943    0.1059   -1.0916 H   0  0  0  1  0  0  0  0  0  0  0  0
    0.2756    0.6718    0.4785 H   0  0  0  1  0  0  0  0  0  0  0  0
    2.2826    0.7594    1.1263 H   0  0  0  1  0  0  0  0  0  0  0  0
    2.0583   -2.3323   -0.7082 H   0  0  0  1  0  0  0  0  0  0  0  0
    2.1688   -5.3246   -0.6226 H   0  0  0  1  0  0  0  0  0  0  0  0
   -1.9235   -3.0046    2.0616 H   0  0  0  1  0  0  0  0  0  0  0  0
   -1.2642   -5.7122    1.7062 H   0  0  0  1  0  0  0  0  0  0  0  0
    0.6086   -7.0239    0.5569 H   0  0  0  1  0  0  0  0  0  0  0  0
   -1.2023   -0.7754    1.4372 H   0  0  0  1  0  0  0  0  0  0  0  0
  1  2  1  0  0  0  0
  1  9  1  0  0  0  0
  1 12  1  0  0  0  0
  1 13  1  0  0  0  0
  2 14  1  0  0  0  0
  3  4  1  0  0  0  0
  3  5  2  0  0  0  0
  3  6  1  0  0  0  0
  4  7  2  0  0  0  0
  4  8  1  0  0  0  0
  5  9  1  0  0  0  0
  5 15  1  0  0  0  0
  6 10  2  0  0  0  0
  6 16  1  0  0  0  0
  7 11  1  0  0  0  0
  7 17  1  0  0  0  0
  8 10  1  0  0  0  0
  8 18  1  0  0  0  0
  9 11  2  0  0  0  0
 10 19  1  0  0  0  0
 11 20  1  0  0  0  0
M  END
> <ConfClashScore>
0 

> <ConfOneFourInteractionScore>
-1 

> <ConfScore>
-0.0346313 

> <ConfScorePBest>
0.00716747 

> <ConfTolerance>
0.0245965 

$$$$
﻿1H-Indole-5-methanol
 OpenBabel06142111183D
1075-25-8 Copyright (C) 2021 ACS
 20 21  0  0  0  0  0  0  0  0999 V2000
    0.8438   -0.0036   -0.0776 C   0  0  0  1  0  0  0  0  0  0  0  0
    2.0207    0.4258    0.5912 O   0  0  0  1  0  0  0  0  0  0  0  0
    0.8206   -3.7886    0.2218 C   0  0  0  1  0  0  0  0  0  0  0  0
   -0.3388   -3.9505    1.0079 C   0  0  0  1  0  0  0  0  0  0  0  0
    1.2258   -2.4887   -0.1104 C   0  0  0  1  0  0  0  0  0  0  0  0
    1.3267   -5.0992   -0.0566 C   0  0  0  1  0  0  0  0  0  0  0  0
   -1.0753   -2.8647    1.4703 C   0  0  0  1  0  0  0  0  0  0  0  0
   -0.5343   -5.3044    1.1960 N   0  0  0  1  0  0  0  0  0  0  0  0
    0.4948   -1.4189    0.3392 C   0  0  0  1  0  0  0  0  0  0  0  0
    0.4869   -5.9928    0.5587 C   0  0  0  1  0  0  0  0  0  0  0  0
   -0.6501   -1.6029    1.1227 C   0  0  0  1  0  0  0  0  0  0  0  0
    1.0076    0.0238   -1.1346 H   0  0  0  1  0  0  0  0  0  0  0  0
    0.0349    0.6494    0.1756 H   0  0  0  1  0  0  0  0  0  0  0  0
    1.7895    0.7727    1.4559 H   0  0  0  1  0  0  0  0  0  0  0  0
    2.0737   -2.3366   -0.6931 H   0  0  0  1  0  0  0  0  0  0  0  0
    2.1708   -5.3297   -0.6188 H   0  0  0  1  0  0  0  0  0  0  0  0
   -1.9207   -3.0022    2.0602 H   0  0  0  1  0  0  0  0  0  0  0  0
   -1.2720   -5.7112    1.6966 H   0  0  0  1  0  0  0  0  0  0  0  0
    0.5990   -7.0267    0.5488 H   0  0  0  1  0  0  0  0  0  0  0  0
   -1.1875   -0.7738    1.4470 H   0  0  0  1  0  0  0  0  0  0  0  0
  1  2  1  0  0  0  0
  1  9  1  0  0  0  0
  1 12  1  0  0  0  0
  1 13  1  0  0  0  0
  2 14  1  0  0  0  0
  3  4  1  0  0  0  0
  3  5  2  0  0  0  0
  3  6  1  0  0  0  0
  4  7  2  0  0  0  0
  4  8  1  0  0  0  0
  5  9  1  0  0  0  0
  5 15  1  0  0  0  0
  6 10  2  0  0  0  0
  6 16  1  0  0  0  0
  7 11  1  0  0  0  0
  7 17  1  0  0  0  0
  8 10  1  0  0  0  0
  8 18  1  0  0  0  0
  9 11  2  0  0  0  0
 10 19  1  0  0  0  0
 11 20  1  0  0  0  0
M  END
> <ConfClashScore>
0 

> <ConfOneFourInteractionScore>
-1 

> <ConfScore>
-0.0346313 

> <ConfScorePBest>
0.00706447 

> <ConfTolerance>
0.0402826 

$$$$
﻿1H-Indole-5-methanol
 OpenBabel06142111183D
1075-25-8 Copyright (C) 2021 ACS
 20 21  0  0  0  0  0  0  0  0999 V2000
    0.9069   -0.0234   -0.0351 C   0  0  0  1  0  0  0  0  0  0  0  0
    2.2749    0.1286    0.3382 O   0  0  0  1  0  0  0  0  0  0  0  0
    0.8148   -3.7861    0.2167 C   0  0  0  1  0  0  0  0  0  0  0  0
   -0.3411   -3.9501    1.0075 C   0  0  0  1  0  0  0  0  0  0  0  0
    1.2131   -2.4858   -0.1220 C   0  0  0  1  0  0  0  0  0  0  0  0
    1.3257   -5.0955   -0.0585 C   0  0  0  1  0  0  0  0  0  0  0  0
   -1.0807   -2.8657    1.4682 C   0  0  0  1  0  0  0  0  0  0  0  0
   -0.5300   -5.3041    1.2015 N   0  0  0  1  0  0  0  0  0  0  0  0
    0.4790   -1.4174    0.3260 C   0  0  0  1  0  0  0  0  0  0  0  0
    0.4920   -5.9904    0.5633 C   0  0  0  1  0  0  0  0  0  0  0  0
   -0.6623   -1.6034    1.1142 C   0  0  0  1  0  0  0  0  0  0  0  0
    0.7993    0.1277   -1.0889 H   0  0  0  1  0  0  0  0  0  0  0  0
    0.3059    0.6885    0.4911 H   0  0  0  1  0  0  0  0  0  0  0  0
    2.3273    0.4253    1.2497 H   0  0  0  1  0  0  0  0  0  0  0  0
    2.0583   -2.3323   -0.7082 H   0  0  0  1  0  0  0  0  0  0  0  0
    2.1688   -5.3246   -0.6226 H   0  0  0  1  0  0  0  0  0  0  0  0
   -1.9235   -3.0046    2.0616 H   0  0  0  1  0  0  0  0  0  0  0  0
   -1.2642   -5.7121    1.7062 H   0  0  0  1  0  0  0  0  0  0  0  0
    0.6086   -7.0238    0.5569 H   0  0  0  1  0  0  0  0  0  0  0  0
   -1.2022   -0.7754    1.4372 H   0  0  0  1  0  0  0  0  0  0  0  0
  1  2  1  0  0  0  0
  1  9  1  0  0  0  0
  1 12  1  0  0  0  0
  1 13  1  0  0  0  0
  2 14  1  0  0  0  0
  3  4  1  0  0  0  0
  3  5  2  0  0  0  0
  3  6  1  0  0  0  0
  4  7  2  0  0  0  0
  4  8  1  0  0  0  0
  5  9  1  0  0  0  0
  5 15  1  0  0  0  0
  6 10  2  0  0  0  0
  6 16  1  0  0  0  0
  7 11  1  0  0  0  0
  7 17  1  0  0  0  0
  8 10  1  0  0  0  0
  8 18  1  0  0  0  0
  9 11  2  0  0  0  0
 10 19  1  0  0  0  0
 11 20  1  0  0  0  0
M  END
> <ConfClashScore>
0 

> <ConfOneFourInteractionScore>
-1 

> <ConfScore>
-0.0346313 

> <ConfScorePBest>
0.00696147 

> <ConfTolerance>
0.0341968 

$$$$
﻿1H-Indole-5-methanol
 OpenBabel06142111183D
1075-25-8 Copyright (C) 2021 ACS
 20 21  0  0  0  0  0  0  0  0999 V2000
    0.8714    0.0060   -0.0123 C   0  0  0  1  0  0  0  0  0  0  0  0
    2.2050    0.3282    0.3768 O   0  0  0  1  0  0  0  0  0  0  0  0
    0.8172   -3.7899    0.2153 C   0  0  0  1  0  0  0  0  0  0  0  0
   -0.3391   -3.9507    1.0061 C   0  0  0  1  0  0  0  0  0  0  0  0
    1.2180   -2.4908   -0.1251 C   0  0  0  1  0  0  0  0  0  0  0  0
    1.3257   -5.1007   -0.0582 C   0  0  0  1  0  0  0  0  0  0  0  0
   -1.0767   -2.8643    1.4654 C   0  0  0  1  0  0  0  0  0  0  0  0
   -0.5306   -5.3041    1.2019 N   0  0  0  1  0  0  0  0  0  0  0  0
    0.4859   -1.4205    0.3215 C   0  0  0  1  0  0  0  0  0  0  0  0
    0.4902   -5.9932    0.5647 C   0  0  0  1  0  0  0  0  0  0  0  0
   -0.6558   -1.6033    1.1098 C   0  0  0  1  0  0  0  0  0  0  0  0
    0.7819    0.1448   -1.0695 H   0  0  0  1  0  0  0  0  0  0  0  0
    0.1995    0.6678    0.4930 H   0  0  0  1  0  0  0  0  0  0  0  0
    2.2011    0.6880    1.2668 H   0  0  0  1  0  0  0  0  0  0  0  0
    2.0636   -2.3396   -0.7114 H   0  0  0  1  0  0  0  0  0  0  0  0
    2.1684   -5.3321   -0.6219 H   0  0  0  1  0  0  0  0  0  0  0  0
   -1.9198   -3.0008    2.0588 H   0  0  0  1  0  0  0  0  0  0  0  0
   -1.2656   -5.7101    1.7071 H   0  0  0  1  0  0  0  0  0  0  0  0
    0.6048   -7.0268    0.5597 H   0  0  0  1  0  0  0  0  0  0  0  0
   -1.1943   -0.7738    1.4317 H   0  0  0  1  0  0  0  0  0  0  0  0
  1  2  1  0  0  0  0
  1  9  1  0  0  0  0
  1 12  1  0  0  0  0
  1 13  1  0  0  0  0
  2 14  1  0  0  0  0
  3  4  1  0  0  0  0
  3  5  2  0  0  0  0
  3  6  1  0  0  0  0
  4  7  2  0  0  0  0
  4  8  1  0  0  0  0
  5  9  1  0  0  0  0
  5 15  1  0  0  0  0
  6 10  2  0  0  0  0
  6 16  1  0  0  0  0
  7 11  1  0  0  0  0
  7 17  1  0  0  0  0
  8 10  1  0  0  0  0
  8 18  1  0  0  0  0
  9 11  2  0  0  0  0
 10 19  1  0  0  0  0
 11 20  1  0  0  0  0
M  END
> <ConfClashScore>
0 

> <ConfOneFourInteractionScore>
-1 

> <ConfScore>
-0.0346313 

> <ConfScorePBest>
0.00685847 

> <ConfTolerance>
0.0365922 

$$$$
﻿1H-Indole-5-methanol
 OpenBabel06142111183D
1075-25-8 Copyright (C) 2021 ACS
 20 21  0  0  0  0  0  0  0  0999 V2000
    0.9065   -0.0247   -0.0347 C   0  0  0  1  0  0  0  0  0  0  0  0
    2.1388    0.3498    0.5636 O   0  0  0  1  0  0  0  0  0  0  0  0
    0.8148   -3.7860    0.2167 C   0  0  0  1  0  0  0  0  0  0  0  0
   -0.3411   -3.9500    1.0075 C   0  0  0  1  0  0  0  0  0  0  0  0
    1.2132   -2.4857   -0.1220 C   0  0  0  1  0  0  0  0  0  0  0  0
    1.3257   -5.0954   -0.0585 C   0  0  0  1  0  0  0  0  0  0  0  0
   -1.0807   -2.8656    1.4682 C   0  0  0  1  0  0  0  0  0  0  0  0
   -0.5300   -5.3040    1.2014 N   0  0  0  1  0  0  0  0  0  0  0  0
    0.4791   -1.4174    0.3260 C   0  0  0  1  0  0  0  0  0  0  0  0
    0.4920   -5.9903    0.5633 C   0  0  0  1  0  0  0  0  0  0  0  0
   -0.6622   -1.6033    1.1142 C   0  0  0  1  0  0  0  0  0  0  0  0
    1.0118    0.0349   -1.0979 H   0  0  0  1  0  0  0  0  0  0  0  0
    0.1492    0.6587    0.2881 H   0  0  0  1  0  0  0  0  0  0  0  0
    1.9676    0.8112    1.3879 H   0  0  0  1  0  0  0  0  0  0  0  0
    2.0584   -2.3322   -0.7083 H   0  0  0  1  0  0  0  0  0  0  0  0
    2.1688   -5.3245   -0.6227 H   0  0  0  1  0  0  0  0  0  0  0  0
   -1.9235   -3.0045    2.0616 H   0  0  0  1  0  0  0  0  0  0  0  0
   -1.2642   -5.7120    1.7062 H   0  0  0  1  0  0  0  0  0  0  0  0
    0.6086   -7.0237    0.5569 H   0  0  0  1  0  0  0  0  0  0  0  0
   -1.2022   -0.7753    1.4372 H   0  0  0  1  0  0  0  0  0  0  0  0
  1  2  1  0  0  0  0
  1  9  1  0  0  0  0
  1 12  1  0  0  0  0
  1 13  1  0  0  0  0
  2 14  1  0  0  0  0
  3  4  1  0  0  0  0
  3  5  2  0  0  0  0
  3  6  1  0  0  0  0
  4  7  2  0  0  0  0
  4  8  1  0  0  0  0
  5  9  1  0  0  0  0
  5 15  1  0  0  0  0
  6 10  2  0  0  0  0
  6 16  1  0  0  0  0
  7 11  1  0  0  0  0
  7 17  1  0  0  0  0
  8 10  1  0  0  0  0
  8 18  1  0  0  0  0
  9 11  2  0  0  0  0
 10 19  1  0  0  0  0
 11 20  1  0  0  0  0
M  END
> <ConfClashScore>
0 

> <ConfOneFourInteractionScore>
-1 

> <ConfScore>
-0.0346313 

> <ConfScorePBest>
0.00675547 

> <ConfTolerance>
0.0318268 

$$$$
﻿1H-Indole-5-methanol
 OpenBabel06142111183D
1075-25-8 Copyright (C) 2021 ACS
 20 21  0  0  0  0  0  0  0  0999 V2000
    0.8779   -0.0216   -0.0985 C   0  0  0  1  0  0  0  0  0  0  0  0
    2.1337    0.2587    0.5465 O   0  0  0  1  0  0  0  0  0  0  0  0
    0.8182   -3.7857    0.2231 C   0  0  0  1  0  0  0  0  0  0  0  0
   -0.3407   -3.9505    1.0092 C   0  0  0  1  0  0  0  0  0  0  0  0
    1.2211   -2.4848   -0.1078 C   0  0  0  1  0  0  0  0  0  0  0  0
    1.3266   -5.0951   -0.0568 C   0  0  0  1  0  0  0  0  0  0  0  0
   -1.0790   -2.8665    1.4729 C   0  0  0  1  0  0  0  0  0  0  0  0
   -0.5338   -5.3050    1.1959 N   0  0  0  1  0  0  0  0  0  0  0  0
    0.4883   -1.4167    0.3431 C   0  0  0  1  0  0  0  0  0  0  0  0
    0.4885   -5.9908    0.5577 C   0  0  0  1  0  0  0  0  0  0  0  0
   -0.6561   -1.6036    1.1266 C   0  0  0  1  0  0  0  0  0  0  0  0
    0.9894    0.0146   -1.1621 H   0  0  0  1  0  0  0  0  0  0  0  0
    0.1362    0.6864    0.2071 H   0  0  0  1  0  0  0  0  0  0  0  0
    1.9878    0.8501    1.2885 H   0  0  0  1  0  0  0  0  0  0  0  0
    2.0687   -2.3306   -0.6904 H   0  0  0  1  0  0  0  0  0  0  0  0
    2.1710   -5.3236   -0.6193 H   0  0  0  1  0  0  0  0  0  0  0  0
   -1.9241   -3.0061    2.0628 H   0  0  0  1  0  0  0  0  0  0  0  0
   -1.2708   -5.7136    1.6961 H   0  0  0  1  0  0  0  0  0  0  0  0
    0.6024   -7.0245    0.5466 H   0  0  0  1  0  0  0  0  0  0  0  0
   -1.1950   -0.7758    1.4519 H   0  0  0  1  0  0  0  0  0  0  0  0
  1  2  1  0  0  0  0
  1  9  1  0  0  0  0
  1 12  1  0  0  0  0
  1 13  1  0  0  0  0
  2 14  1  0  0  0  0
  3  4  1  0  0  0  0
  3  5  2  0  0  0  0
  3  6  1  0  0  0  0
  4  7  2  0  0  0  0
  4  8  1  0  0  0  0
  5  9  1  0  0  0  0
  5 15  1  0  0  0  0
  6 10  2  0  0  0  0
  6 16  1  0  0  0  0
  7 11  1  0  0  0  0
  7 17  1  0  0  0  0
  8 10  1  0  0  0  0
  8 18  1  0  0  0  0
  9 11  2  0  0  0  0
 10 19  1  0  0  0  0
 11 20  1  0  0  0  0
M  END
> <ConfClashScore>
0 

> <ConfOneFourInteractionScore>
-1 

> <ConfScore>
-0.0346313 

> <ConfScorePBest>
0.00665247 

> <ConfTolerance>
0.0479191 

$$$$
﻿1H-Indole-5-methanol
 OpenBabel06142111183D
1075-25-8 Copyright (C) 2021 ACS
 20 21  0  0  0  0  0  0  0  0999 V2000
    0.8779   -0.0216   -0.0985 C   0  0  0  1  0  0  0  0  0  0  0  0
    2.2168    0.3340    0.1631 O   0  0  0  1  0  0  0  0  0  0  0  0
    0.8182   -3.7857    0.2231 C   0  0  0  1  0  0  0  0  0  0  0  0
   -0.3407   -3.9505    1.0092 C   0  0  0  1  0  0  0  0  0  0  0  0
    1.2211   -2.4848   -0.1078 C   0  0  0  1  0  0  0  0  0  0  0  0
    1.3266   -5.0951   -0.0568 C   0  0  0  1  0  0  0  0  0  0  0  0
   -1.0790   -2.8665    1.4729 C   0  0  0  1  0  0  0  0  0  0  0  0
   -0.5338   -5.3050    1.1959 N   0  0  0  1  0  0  0  0  0  0  0  0
    0.4883   -1.4167    0.3431 C   0  0  0  1  0  0  0  0  0  0  0  0
    0.4885   -5.9908    0.5577 C   0  0  0  1  0  0  0  0  0  0  0  0
   -0.6561   -1.6036    1.1266 C   0  0  0  1  0  0  0  0  0  0  0  0
    0.7158    0.0497   -1.1538 H   0  0  0  1  0  0  0  0  0  0  0  0
    0.2442    0.6759    0.4081 H   0  0  0  1  0  0  0  0  0  0  0  0
    2.2631    0.8232    0.9879 H   0  0  0  1  0  0  0  0  0  0  0  0
    2.0687   -2.3306   -0.6904 H   0  0  0  1  0  0  0  0  0  0  0  0
    2.1710   -5.3236   -0.6193 H   0  0  0  1  0  0  0  0  0  0  0  0
   -1.9241   -3.0061    2.0628 H   0  0  0  1  0  0  0  0  0  0  0  0
   -1.2708   -5.7136    1.6961 H   0  0  0  1  0  0  0  0  0  0  0  0
    0.6024   -7.0245    0.5466 H   0  0  0  1  0  0  0  0  0  0  0  0
   -1.1950   -0.7758    1.4519 H   0  0  0  1  0  0  0  0  0  0  0  0
  1  2  1  0  0  0  0
  1  9  1  0  0  0  0
  1 12  1  0  0  0  0
  1 13  1  0  0  0  0
  2 14  1  0  0  0  0
  3  4  1  0  0  0  0
  3  5  2  0  0  0  0
  3  6  1  0  0  0  0
  4  7  2  0  0  0  0
  4  8  1  0  0  0  0
  5  9  1  0  0  0  0
  5 15  1  0  0  0  0
  6 10  2  0  0  0  0
  6 16  1  0  0  0  0
  7 11  1  0  0  0  0
  7 17  1  0  0  0  0
  8 10  1  0  0  0  0
  8 18  1  0  0  0  0
  9 11  2  0  0  0  0
 10 19  1  0  0  0  0
 11 20  1  0  0  0  0
M  END
> <ConfClashScore>
0 

> <ConfOneFourInteractionScore>
-1 

> <ConfScore>
-0.0346313 

> <ConfScorePBest>
0.00654947 

> <ConfTolerance>
0.148465 

$$$$
﻿1H-Indole-5-methanol
 OpenBabel06142111183D
1075-25-8 Copyright (C) 2021 ACS
 20 21  0  0  0  0  0  0  0  0999 V2000
    0.9072   -0.0225   -0.0353 C   0  0  0  1  0  0  0  0  0  0  0  0
   -0.1493    0.7603   -0.5748 O   0  0  0  1  0  0  0  0  0  0  0  0
    0.8148   -3.7862    0.2167 C   0  0  0  1  0  0  0  0  0  0  0  0
   -0.3411   -3.9501    1.0075 C   0  0  0  1  0  0  0  0  0  0  0  0
    1.2131   -2.4858   -0.1220 C   0  0  0  1  0  0  0  0  0  0  0  0
    1.3257   -5.0956   -0.0585 C   0  0  0  1  0  0  0  0  0  0  0  0
   -1.0808   -2.8657    1.4682 C   0  0  0  1  0  0  0  0  0  0  0  0
   -0.5300   -5.3041    1.2015 N   0  0  0  1  0  0  0  0  0  0  0  0
    0.4790   -1.4175    0.3261 C   0  0  0  1  0  0  0  0  0  0  0  0
    0.4920   -5.9905    0.5633 C   0  0  0  1  0  0  0  0  0  0  0  0
   -0.6623   -1.6035    1.1142 C   0  0  0  1  0  0  0  0  0  0  0  0
    1.2737    0.4608    0.8462 H   0  0  0  1  0  0  0  0  0  0  0  0
    1.6910   -0.0837   -0.7611 H   0  0  0  1  0  0  0  0  0  0  0  0
   -0.1399    0.6948   -1.5325 H   0  0  0  1  0  0  0  0  0  0  0  0
    2.0583   -2.3323   -0.7082 H   0  0  0  1  0  0  0  0  0  0  0  0
    2.1688   -5.3246   -0.6226 H   0  0  0  1  0  0  0  0  0  0  0  0
   -1.9235   -3.0046    2.0616 H   0  0  0  1  0  0  0  0  0  0  0  0
   -1.2642   -5.7122    1.7062 H   0  0  0  1  0  0  0  0  0  0  0  0
    0.6086   -7.0239    0.5569 H   0  0  0  1  0  0  0  0  0  0  0  0
   -1.2023   -0.7754    1.4372 H   0  0  0  1  0  0  0  0  0  0  0  0
  1  2  1  0  0  0  0
  1  9  1  0  0  0  0
  1 12  1  0  0  0  0
  1 13  1  0  0  0  0
  2 14  1  0  0  0  0
  3  4  1  0  0  0  0
  3  5  2  0  0  0  0
  3  6  1  0  0  0  0
  4  7  2  0  0  0  0
  4  8  1  0  0  0  0
  5  9  1  0  0  0  0
  5 15  1  0  0  0  0
  6 10  2  0  0  0  0
  6 16  1  0  0  0  0
  7 11  1  0  0  0  0
  7 17  1  0  0  0  0
  8 10  1  0  0  0  0
  8 18  1  0  0  0  0
  9 11  2  0  0  0  0
 10 19  1  0  0  0  0
 11 20  1  0  0  0  0
M  END
> <ConfClashScore>
0 

> <ConfOneFourInteractionScore>
-1 

> <ConfScore>
-0.0346313 

> <ConfScorePBest>
0.00644647 

> <ConfTolerance>
0.0372333 

$$$$
﻿1H-Indole-5-methanol
 OpenBabel06142111183D
1075-25-8 Copyright (C) 2021 ACS
 20 21  0  0  0  0  0  0  0  0999 V2000
    0.8714    0.0060   -0.0123 C   0  0  0  1  0  0  0  0  0  0  0  0
   -0.0758    0.6556   -0.8475 O   0  0  0  1  0  0  0  0  0  0  0  0
    0.8172   -3.7899    0.2153 C   0  0  0  1  0  0  0  0  0  0  0  0
   -0.3391   -3.9507    1.0061 C   0  0  0  1  0  0  0  0  0  0  0  0
    1.2180   -2.4908   -0.1251 C   0  0  0  1  0  0  0  0  0  0  0  0
    1.3257   -5.1007   -0.0582 C   0  0  0  1  0  0  0  0  0  0  0  0
   -1.0767   -2.8643    1.4654 C   0  0  0  1  0  0  0  0  0  0  0  0
   -0.5306   -5.3041    1.2019 N   0  0  0  1  0  0  0  0  0  0  0  0
    0.4859   -1.4205    0.3215 C   0  0  0  1  0  0  0  0  0  0  0  0
    0.4902   -5.9932    0.5647 C   0  0  0  1  0  0  0  0  0  0  0  0
   -0.6558   -1.6033    1.1098 C   0  0  0  1  0  0  0  0  0  0  0  0
    0.9569    0.5584    0.9000 H   0  0  0  1  0  0  0  0  0  0  0  0
    1.8169   -0.0048   -0.5133 H   0  0  0  1  0  0  0  0  0  0  0  0
    0.1133    0.4508   -1.7662 H   0  0  0  1  0  0  0  0  0  0  0  0
    2.0636   -2.3396   -0.7114 H   0  0  0  1  0  0  0  0  0  0  0  0
    2.1684   -5.3321   -0.6219 H   0  0  0  1  0  0  0  0  0  0  0  0
   -1.9198   -3.0008    2.0588 H   0  0  0  1  0  0  0  0  0  0  0  0
   -1.2656   -5.7101    1.7071 H   0  0  0  1  0  0  0  0  0  0  0  0
    0.6048   -7.0268    0.5597 H   0  0  0  1  0  0  0  0  0  0  0  0
   -1.1943   -0.7738    1.4317 H   0  0  0  1  0  0  0  0  0  0  0  0
  1  2  1  0  0  0  0
  1  9  1  0  0  0  0
  1 12  1  0  0  0  0
  1 13  1  0  0  0  0
  2 14  1  0  0  0  0
  3  4  1  0  0  0  0
  3  5  2  0  0  0  0
  3  6  1  0  0  0  0
  4  7  2  0  0  0  0
  4  8  1  0  0  0  0
  5  9  1  0  0  0  0
  5 15  1  0  0  0  0
  6 10  2  0  0  0  0
  6 16  1  0  0  0  0
  7 11  1  0  0  0  0
  7 17  1  0  0  0  0
  8 10  1  0  0  0  0
  8 18  1  0  0  0  0
  9 11  2  0  0  0  0
 10 19  1  0  0  0  0
 11 20  1  0  0  0  0
M  END
> <ConfClashScore>
0 

> <ConfOneFourInteractionScore>
-1 

> <ConfScore>
-0.0346313 

> <ConfScorePBest>
0.00634346 

> <ConfTolerance>
0.040169 

$$$$
﻿1H-Indole-5-methanol
 OpenBabel06142111183D
1075-25-8 Copyright (C) 2021 ACS
 20 21  0  0  0  0  0  0  0  0999 V2000
    0.9072   -0.0225   -0.0353 C   0  0  0  1  0  0  0  0  0  0  0  0
   -0.1496    0.6545   -0.7127 O   0  0  0  1  0  0  0  0  0  0  0  0
    0.8148   -3.7862    0.2167 C   0  0  0  1  0  0  0  0  0  0  0  0
   -0.3411   -3.9501    1.0075 C   0  0  0  1  0  0  0  0  0  0  0  0
    1.2131   -2.4858   -0.1220 C   0  0  0  1  0  0  0  0  0  0  0  0
    1.3257   -5.0956   -0.0585 C   0  0  0  1  0  0  0  0  0  0  0  0
   -1.0808   -2.8657    1.4682 C   0  0  0  1  0  0  0  0  0  0  0  0
   -0.5300   -5.3041    1.2015 N   0  0  0  1  0  0  0  0  0  0  0  0
    0.4790   -1.4175    0.3261 C   0  0  0  1  0  0  0  0  0  0  0  0
    0.4920   -5.9905    0.5633 C   0  0  0  1  0  0  0  0  0  0  0  0
   -0.6623   -1.6035    1.1142 C   0  0  0  1  0  0  0  0  0  0  0  0
    1.1562    0.5135    0.8567 H   0  0  0  1  0  0  0  0  0  0  0  0
    1.7640   -0.0698   -0.6745 H   0  0  0  1  0  0  0  0  0  0  0  0
   -0.1604    0.3894   -1.6353 H   0  0  0  1  0  0  0  0  0  0  0  0
    2.0583   -2.3323   -0.7082 H   0  0  0  1  0  0  0  0  0  0  0  0
    2.1688   -5.3246   -0.6226 H   0  0  0  1  0  0  0  0  0  0  0  0
   -1.9235   -3.0046    2.0616 H   0  0  0  1  0  0  0  0  0  0  0  0
   -1.2642   -5.7122    1.7062 H   0  0  0  1  0  0  0  0  0  0  0  0
    0.6086   -7.0239    0.5569 H   0  0  0  1  0  0  0  0  0  0  0  0
   -1.2023   -0.7754    1.4372 H   0  0  0  1  0  0  0  0  0  0  0  0
  1  2  1  0  0  0  0
  1  9  1  0  0  0  0
  1 12  1  0  0  0  0
  1 13  1  0  0  0  0
  2 14  1  0  0  0  0
  3  4  1  0  0  0  0
  3  5  2  0  0  0  0
  3  6  1  0  0  0  0
  4  7  2  0  0  0  0
  4  8  1  0  0  0  0
  5  9  1  0  0  0  0
  5 15  1  0  0  0  0
  6 10  2  0  0  0  0
  6 16  1  0  0  0  0
  7 11  1  0  0  0  0
  7 17  1  0  0  0  0
  8 10  1  0  0  0  0
  8 18  1  0  0  0  0
  9 11  2  0  0  0  0
 10 19  1  0  0  0  0
 11 20  1  0  0  0  0
M  END
> <ConfClashScore>
0 

> <ConfOneFourInteractionScore>
-1 

> <ConfScore>
-0.0346313 

> <ConfScorePBest>
0.00624046 

> <ConfTolerance>
0.0863801 

$$$$
﻿1H-Indole-5-methanol
 OpenBabel06142111183D
1075-25-8 Copyright (C) 2021 ACS
 20 21  0  0  0  0  0  0  0  0999 V2000
    0.9804   -0.0512   -0.0838 C   0  0  0  1  0  0  0  0  0  0  0  0
    1.1450   -0.0041   -1.4936 O   0  0  0  1  0  0  0  0  0  0  0  0
    0.8098   -3.7807    0.2198 C   0  0  0  1  0  0  0  0  0  0  0  0
   -0.3453   -3.9508    1.0104 C   0  0  0  1  0  0  0  0  0  0  0  0
    1.2034   -2.4781   -0.1158 C   0  0  0  1  0  0  0  0  0  0  0  0
    1.3254   -5.0876   -0.0587 C   0  0  0  1  0  0  0  0  0  0  0  0
   -1.0888   -2.8702    1.4740 C   0  0  0  1  0  0  0  0  0  0  0  0
   -0.5292   -5.3059    1.2011 N   0  0  0  1  0  0  0  0  0  0  0  0
    0.4655   -1.4135    0.3351 C   0  0  0  1  0  0  0  0  0  0  0  0
    0.4951   -5.9870    0.5610 C   0  0  0  1  0  0  0  0  0  0  0  0
   -0.6749   -1.6056    1.1230 C   0  0  0  1  0  0  0  0  0  0  0  0
    0.2792    0.6995    0.2158 H   0  0  0  1  0  0  0  0  0  0  0  0
    1.9229    0.1314    0.3887 H   0  0  0  1  0  0  0  0  0  0  0  0
    0.3484    0.3478   -1.8976 H   0  0  0  1  0  0  0  0  0  0  0  0
    2.0479   -2.3201   -0.7018 H   0  0  0  1  0  0  0  0  0  0  0  0
    2.1692   -5.3122   -0.6236 H   0  0  0  1  0  0  0  0  0  0  0  0
   -1.9309   -3.0136    2.0672 H   0  0  0  1  0  0  0  0  0  0  0  0
   -1.2619   -5.7179    1.7050 H   0  0  0  1  0  0  0  0  0  0  0  0
    0.6154   -7.0200    0.5520 H   0  0  0  1  0  0  0  0  0  0  0  0
   -1.2178   -0.7803    1.4482 H   0  0  0  1  0  0  0  0  0  0  0  0
  1  2  1  0  0  0  0
  1  9  1  0  0  0  0
  1 12  1  0  0  0  0
  1 13  1  0  0  0  0
  2 14  1  0  0  0  0
  3  4  1  0  0  0  0
  3  5  2  0  0  0  0
  3  6  1  0  0  0  0
  4  7  2  0  0  0  0
  4  8  1  0  0  0  0
  5  9  1  0  0  0  0
  5 15  1  0  0  0  0
  6 10  2  0  0  0  0
  6 16  1  0  0  0  0
  7 11  1  0  0  0  0
  7 17  1  0  0  0  0
  8 10  1  0  0  0  0
  8 18  1  0  0  0  0
  9 11  2  0  0  0  0
 10 19  1  0  0  0  0
 11 20  1  0  0  0  0
M  END
> <ConfClashScore>
0 

> <ConfOneFourInteractionScore>
-1 

> <ConfScore>
-0.0191655 

> <ConfScorePBest>
0.00613746 

> <ConfTolerance>
0.0883987 

$$$$
﻿1H-Indole-5-methanol
 OpenBabel06142111183D
1075-25-8 Copyright (C) 2021 ACS
 20 21  0  0  0  0  0  0  0  0999 V2000
    0.9804   -0.0512   -0.0838 C   0  0  0  1  0  0  0  0  0  0  0  0
    2.2968   -0.1664   -0.6071 O   0  0  0  1  0  0  0  0  0  0  0  0
    0.8098   -3.7807    0.2198 C   0  0  0  1  0  0  0  0  0  0  0  0
   -0.3453   -3.9508    1.0104 C   0  0  0  1  0  0  0  0  0  0  0  0
    1.2034   -2.4781   -0.1158 C   0  0  0  1  0  0  0  0  0  0  0  0
    1.3254   -5.0876   -0.0587 C   0  0  0  1  0  0  0  0  0  0  0  0
   -1.0888   -2.8702    1.4740 C   0  0  0  1  0  0  0  0  0  0  0  0
   -0.5292   -5.3059    1.2011 N   0  0  0  1  0  0  0  0  0  0  0  0
    0.4655   -1.4135    0.3351 C   0  0  0  1  0  0  0  0  0  0  0  0
    0.4951   -5.9870    0.5610 C   0  0  0  1  0  0  0  0  0  0  0  0
   -0.6749   -1.6056    1.1230 C   0  0  0  1  0  0  0  0  0  0  0  0
    0.3355    0.3552   -0.8348 H   0  0  0  1  0  0  0  0  0  0  0  0
    0.9931    0.5989    0.7660 H   0  0  0  1  0  0  0  0  0  0  0  0
    2.7777   -0.8392   -0.1196 H   0  0  0  1  0  0  0  0  0  0  0  0
    2.0479   -2.3201   -0.7018 H   0  0  0  1  0  0  0  0  0  0  0  0
    2.1692   -5.3122   -0.6236 H   0  0  0  1  0  0  0  0  0  0  0  0
   -1.9309   -3.0136    2.0672 H   0  0  0  1  0  0  0  0  0  0  0  0
   -1.2619   -5.7179    1.7050 H   0  0  0  1  0  0  0  0  0  0  0  0
    0.6154   -7.0200    0.5520 H   0  0  0  1  0  0  0  0  0  0  0  0
   -1.2178   -0.7803    1.4482 H   0  0  0  1  0  0  0  0  0  0  0  0
  1  2  1  0  0  0  0
  1  9  1  0  0  0  0
  1 12  1  0  0  0  0
  1 13  1  0  0  0  0
  2 14  1  0  0  0  0
  3  4  1  0  0  0  0
  3  5  2  0  0  0  0
  3  6  1  0  0  0  0
  4  7  2  0  0  0  0
  4  8  1  0  0  0  0
  5  9  1  0  0  0  0
  5 15  1  0  0  0  0
  6 10  2  0  0  0  0
  6 16  1  0  0  0  0
  7 11  1  0  0  0  0
  7 17  1  0  0  0  0
  8 10  1  0  0  0  0
  8 18  1  0  0  0  0
  9 11  2  0  0  0  0
 10 19  1  0  0  0  0
 11 20  1  0  0  0  0
M  END
> <ConfClashScore>
0 

> <ConfOneFourInteractionScore>
-0.988242 

> <ConfScore>
-0.00952677 

> <ConfScorePBest>
0.00603446 

> <ConfTolerance>
0.232855 

$$$$
﻿1H-Indole-5-methanol
 OpenBabel06142111183D
1075-25-8 Copyright (C) 2021 ACS
 20 21  0  0  0  0  0  0  0  0999 V2000
    0.8714    0.0060   -0.0123 C   0  0  0  1  0  0  0  0  0  0  0  0
    1.8307    0.5458    0.8850 O   0  0  0  1  0  0  0  0  0  0  0  0
    0.8172   -3.7899    0.2153 C   0  0  0  1  0  0  0  0  0  0  0  0
   -0.3391   -3.9507    1.0061 C   0  0  0  1  0  0  0  0  0  0  0  0
    1.2180   -2.4908   -0.1251 C   0  0  0  1  0  0  0  0  0  0  0  0
    1.3257   -5.1007   -0.0582 C   0  0  0  1  0  0  0  0  0  0  0  0
   -1.0767   -2.8643    1.4654 C   0  0  0  1  0  0  0  0  0  0  0  0
   -0.5306   -5.3041    1.2019 N   0  0  0  1  0  0  0  0  0  0  0  0
    0.4859   -1.4205    0.3215 C   0  0  0  1  0  0  0  0  0  0  0  0
    0.4902   -5.9932    0.5647 C   0  0  0  1  0  0  0  0  0  0  0  0
   -0.6558   -1.6033    1.1098 C   0  0  0  1  0  0  0  0  0  0  0  0
    1.2802    0.0261   -1.0010 H   0  0  0  1  0  0  0  0  0  0  0  0
   -0.0083    0.6140    0.0229 H   0  0  0  1  0  0  0  0  0  0  0  0
    1.3817    1.0385    1.5758 H   0  0  0  1  0  0  0  0  0  0  0  0
    2.0636   -2.3396   -0.7114 H   0  0  0  1  0  0  0  0  0  0  0  0
    2.1684   -5.3321   -0.6219 H   0  0  0  1  0  0  0  0  0  0  0  0
   -1.9198   -3.0008    2.0588 H   0  0  0  1  0  0  0  0  0  0  0  0
   -1.2656   -5.7101    1.7071 H   0  0  0  1  0  0  0  0  0  0  0  0
    0.6048   -7.0268    0.5597 H   0  0  0  1  0  0  0  0  0  0  0  0
   -1.1943   -0.7738    1.4317 H   0  0  0  1  0  0  0  0  0  0  0  0
  1  2  1  0  0  0  0
  1  9  1  0  0  0  0
  1 12  1  0  0  0  0
  1 13  1  0  0  0  0
  2 14  1  0  0  0  0
  3  4  1  0  0  0  0
  3  5  2  0  0  0  0
  3  6  1  0  0  0  0
  4  7  2  0  0  0  0
  4  8  1  0  0  0  0
  5  9  1  0  0  0  0
  5 15  1  0  0  0  0
  6 10  2  0  0  0  0
  6 16  1  0  0  0  0
  7 11  1  0  0  0  0
  7 17  1  0  0  0  0
  8 10  1  0  0  0  0
  8 18  1  0  0  0  0
  9 11  2  0  0  0  0
 10 19  1  0  0  0  0
 11 20  1  0  0  0  0
M  END
> <ConfClashScore>
0 

> <ConfOneFourInteractionScore>
-1 

> <ConfScore>
0.00371295 

> <ConfScorePBest>
0.00593146 

> <ConfTolerance>
0.0293726 

$$$$
﻿1H-Indole-5-methanol
 OpenBabel06142111183D
1075-25-8 Copyright (C) 2021 ACS
 20 21  0  0  0  0  0  0  0  0999 V2000
    0.9065   -0.0247   -0.0347 C   0  0  0  1  0  0  0  0  0  0  0  0
    1.7500    0.5681    0.9436 O   0  0  0  1  0  0  0  0  0  0  0  0
    0.8148   -3.7860    0.2167 C   0  0  0  1  0  0  0  0  0  0  0  0
   -0.3411   -3.9500    1.0075 C   0  0  0  1  0  0  0  0  0  0  0  0
    1.2132   -2.4857   -0.1220 C   0  0  0  1  0  0  0  0  0  0  0  0
    1.3257   -5.0954   -0.0585 C   0  0  0  1  0  0  0  0  0  0  0  0
   -1.0807   -2.8656    1.4682 C   0  0  0  1  0  0  0  0  0  0  0  0
   -0.5300   -5.3040    1.2014 N   0  0  0  1  0  0  0  0  0  0  0  0
    0.4791   -1.4174    0.3260 C   0  0  0  1  0  0  0  0  0  0  0  0
    0.4920   -5.9903    0.5633 C   0  0  0  1  0  0  0  0  0  0  0  0
   -0.6622   -1.6033    1.1142 C   0  0  0  1  0  0  0  0  0  0  0  0
    1.4354   -0.0605   -0.9642 H   0  0  0  1  0  0  0  0  0  0  0  0
    0.0324    0.5826   -0.1443 H   0  0  0  1  0  0  0  0  0  0  0  0
    1.2376    1.1744    1.4835 H   0  0  0  1  0  0  0  0  0  0  0  0
    2.0584   -2.3322   -0.7083 H   0  0  0  1  0  0  0  0  0  0  0  0
    2.1688   -5.3245   -0.6227 H   0  0  0  1  0  0  0  0  0  0  0  0
   -1.9235   -3.0045    2.0616 H   0  0  0  1  0  0  0  0  0  0  0  0
   -1.2642   -5.7120    1.7062 H   0  0  0  1  0  0  0  0  0  0  0  0
    0.6086   -7.0237    0.5569 H   0  0  0  1  0  0  0  0  0  0  0  0
   -1.2022   -0.7753    1.4372 H   0  0  0  1  0  0  0  0  0  0  0  0
  1  2  1  0  0  0  0
  1  9  1  0  0  0  0
  1 12  1  0  0  0  0
  1 13  1  0  0  0  0
  2 14  1  0  0  0  0
  3  4  1  0  0  0  0
  3  5  2  0  0  0  0
  3  6  1  0  0  0  0
  4  7  2  0  0  0  0
  4  8  1  0  0  0  0
  5  9  1  0  0  0  0
  5 15  1  0  0  0  0
  6 10  2  0  0  0  0
  6 16  1  0  0  0  0
  7 11  1  0  0  0  0
  7 17  1  0  0  0  0
  8 10  1  0  0  0  0
  8 18  1  0  0  0  0
  9 11  2  0  0  0  0
 10 19  1  0  0  0  0
 11 20  1  0  0  0  0
M  END
> <ConfClashScore>
0 

> <ConfOneFourInteractionScore>
-1 

> <ConfScore>
0.00371295 

> <ConfScorePBest>
0.00582846 

> <ConfTolerance>
0.0327671 

$$$$
﻿1H-Indole-5-methanol
 OpenBabel06142111183D
1075-25-8 Copyright (C) 2021 ACS
 20 21  0  0  0  0  0  0  0  0999 V2000
    0.9065   -0.0247   -0.0347 C   0  0  0  1  0  0  0  0  0  0  0  0
    0.2382    0.4812   -1.1811 O   0  0  0  1  0  0  0  0  0  0  0  0
    0.8148   -3.7860    0.2167 C   0  0  0  1  0  0  0  0  0  0  0  0
   -0.3411   -3.9500    1.0075 C   0  0  0  1  0  0  0  0  0  0  0  0
    1.2132   -2.4857   -0.1220 C   0  0  0  1  0  0  0  0  0  0  0  0
    1.3257   -5.0954   -0.0585 C   0  0  0  1  0  0  0  0  0  0  0  0
   -1.0807   -2.8656    1.4682 C   0  0  0  1  0  0  0  0  0  0  0  0
   -0.5300   -5.3040    1.2014 N   0  0  0  1  0  0  0  0  0  0  0  0
    0.4791   -1.4174    0.3260 C   0  0  0  1  0  0  0  0  0  0  0  0
    0.4920   -5.9903    0.5633 C   0  0  0  1  0  0  0  0  0  0  0  0
   -0.6622   -1.6033    1.1142 C   0  0  0  1  0  0  0  0  0  0  0  0
    0.6994    0.6207    0.7932 H   0  0  0  1  0  0  0  0  0  0  0  0
    1.9588   -0.0306   -0.2285 H   0  0  0  1  0  0  0  0  0  0  0  0
    0.7091    0.2097   -1.9724 H   0  0  0  1  0  0  0  0  0  0  0  0
    2.0584   -2.3322   -0.7083 H   0  0  0  1  0  0  0  0  0  0  0  0
    2.1688   -5.3245   -0.6227 H   0  0  0  1  0  0  0  0  0  0  0  0
   -1.9235   -3.0045    2.0616 H   0  0  0  1  0  0  0  0  0  0  0  0
   -1.2642   -5.7120    1.7062 H   0  0  0  1  0  0  0  0  0  0  0  0
    0.6086   -7.0237    0.5569 H   0  0  0  1  0  0  0  0  0  0  0  0
   -1.2022   -0.7753    1.4372 H   0  0  0  1  0  0  0  0  0  0  0  0
  1  2  1  0  0  0  0
  1  9  1  0  0  0  0
  1 12  1  0  0  0  0
  1 13  1  0  0  0  0
  2 14  1  0  0  0  0
  3  4  1  0  0  0  0
  3  5  2  0  0  0  0
  3  6  1  0  0  0  0
  4  7  2  0  0  0  0
  4  8  1  0  0  0  0
  5  9  1  0  0  0  0
  5 15  1  0  0  0  0
  6 10  2  0  0  0  0
  6 16  1  0  0  0  0
  7 11  1  0  0  0  0
  7 17  1  0  0  0  0
  8 10  1  0  0  0  0
  8 18  1  0  0  0  0
  9 11  2  0  0  0  0
 10 19  1  0  0  0  0
 11 20  1  0  0  0  0
M  END
> <ConfClashScore>
0 

> <ConfOneFourInteractionScore>
-1 

> <ConfScore>
0.00371295 

> <ConfScorePBest>
0.00572546 

> <ConfTolerance>
0.0298531 

$$$$
﻿1H-Indole-5-methanol
 OpenBabel06142111183D
1075-25-8 Copyright (C) 2021 ACS
 20 21  0  0  0  0  0  0  0  0999 V2000
    0.9072   -0.0225   -0.0353 C   0  0  0  1  0  0  0  0  0  0  0  0
    0.1011    0.5601   -1.0490 O   0  0  0  1  0  0  0  0  0  0  0  0
    0.8148   -3.7862    0.2167 C   0  0  0  1  0  0  0  0  0  0  0  0
   -0.3411   -3.9501    1.0075 C   0  0  0  1  0  0  0  0  0  0  0  0
    1.2131   -2.4858   -0.1220 C   0  0  0  1  0  0  0  0  0  0  0  0
    1.3257   -5.0956   -0.0585 C   0  0  0  1  0  0  0  0  0  0  0  0
   -1.0808   -2.8657    1.4682 C   0  0  0  1  0  0  0  0  0  0  0  0
   -0.5300   -5.3041    1.2015 N   0  0  0  1  0  0  0  0  0  0  0  0
    0.4790   -1.4175    0.3261 C   0  0  0  1  0  0  0  0  0  0  0  0
    0.4920   -5.9905    0.5633 C   0  0  0  1  0  0  0  0  0  0  0  0
   -0.6623   -1.6035    1.1142 C   0  0  0  1  0  0  0  0  0  0  0  0
    0.8489    0.5896    0.8404 H   0  0  0  1  0  0  0  0  0  0  0  0
    1.9192   -0.0554   -0.3814 H   0  0  0  1  0  0  0  0  0  0  0  0
    0.5719    0.5375   -1.8853 H   0  0  0  1  0  0  0  0  0  0  0  0
    2.0583   -2.3323   -0.7082 H   0  0  0  1  0  0  0  0  0  0  0  0
    2.1688   -5.3246   -0.6226 H   0  0  0  1  0  0  0  0  0  0  0  0
   -1.9235   -3.0046    2.0616 H   0  0  0  1  0  0  0  0  0  0  0  0
   -1.2642   -5.7122    1.7062 H   0  0  0  1  0  0  0  0  0  0  0  0
    0.6086   -7.0239    0.5569 H   0  0  0  1  0  0  0  0  0  0  0  0
   -1.2023   -0.7754    1.4372 H   0  0  0  1  0  0  0  0  0  0  0  0
  1  2  1  0  0  0  0
  1  9  1  0  0  0  0
  1 12  1  0  0  0  0
  1 13  1  0  0  0  0
  2 14  1  0  0  0  0
  3  4  1  0  0  0  0
  3  5  2  0  0  0  0
  3  6  1  0  0  0  0
  4  7  2  0  0  0  0
  4  8  1  0  0  0  0
  5  9  1  0  0  0  0
  5 15  1  0  0  0  0
  6 10  2  0  0  0  0
  6 16  1  0  0  0  0
  7 11  1  0  0  0  0
  7 17  1  0  0  0  0
  8 10  1  0  0  0  0
  8 18  1  0  0  0  0
  9 11  2  0  0  0  0
 10 19  1  0  0  0  0
 11 20  1  0  0  0  0
M  END
> <ConfClashScore>
0 

> <ConfOneFourInteractionScore>
-1 

> <ConfScore>
0.00371295 

> <ConfScorePBest>
0.00562246 

> <ConfTolerance>
0.047564 

$$$$
﻿1H-Indole-5-methanol
 OpenBabel06142111183D
1075-25-8 Copyright (C) 2021 ACS
 20 21  0  0  0  0  0  0  0  0999 V2000
    0.9445   -0.0352   -0.0601 C   0  0  0  1  0  0  0  0  0  0  0  0
    1.9558    0.3586    0.8558 O   0  0  0  1  0  0  0  0  0  0  0  0
    0.8122   -3.7835    0.2183 C   0  0  0  1  0  0  0  0  0  0  0  0
   -0.3433   -3.9506    1.0090 C   0  0  0  1  0  0  0  0  0  0  0  0
    1.2082   -2.4820   -0.1188 C   0  0  0  1  0  0  0  0  0  0  0  0
    1.3255   -5.0917   -0.0586 C   0  0  0  1  0  0  0  0  0  0  0  0
   -1.0848   -2.8681    1.4712 C   0  0  0  1  0  0  0  0  0  0  0  0
   -0.5296   -5.3052    1.2013 N   0  0  0  1  0  0  0  0  0  0  0  0
    0.4722   -1.4156    0.3306 C   0  0  0  1  0  0  0  0  0  0  0  0
    0.4935   -5.9888    0.5621 C   0  0  0  1  0  0  0  0  0  0  0  0
   -0.6687   -1.6047    1.1187 C   0  0  0  1  0  0  0  0  0  0  0  0
    1.3422   -0.0552   -1.0533 H   0  0  0  1  0  0  0  0  0  0  0  0
    0.1271    0.6539   -0.0166 H   0  0  0  1  0  0  0  0  0  0  0  0
    1.5488    0.6854    1.6615 H   0  0  0  1  0  0  0  0  0  0  0  0
    2.0530   -2.3262   -0.7050 H   0  0  0  1  0  0  0  0  0  0  0  0
    2.1690   -5.3185   -0.6231 H   0  0  0  1  0  0  0  0  0  0  0  0
   -1.9272   -3.0093    2.0644 H   0  0  0  1  0  0  0  0  0  0  0  0
   -1.2631   -5.7152    1.7056 H   0  0  0  1  0  0  0  0  0  0  0  0
    0.6120   -7.0220    0.5545 H   0  0  0  1  0  0  0  0  0  0  0  0
   -1.2101   -0.7780    1.4428 H   0  0  0  1  0  0  0  0  0  0  0  0
  1  2  1  0  0  0  0
  1  9  1  0  0  0  0
  1 12  1  0  0  0  0
  1 13  1  0  0  0  0
  2 14  1  0  0  0  0
  3  4  1  0  0  0  0
  3  5  2  0  0  0  0
  3  6  1  0  0  0  0
  4  7  2  0  0  0  0
  4  8  1  0  0  0  0
  5  9  1  0  0  0  0
  5 15  1  0  0  0  0
  6 10  2  0  0  0  0
  6 16  1  0  0  0  0
  7 11  1  0  0  0  0
  7 17  1  0  0  0  0
  8 10  1  0  0  0  0
  8 18  1  0  0  0  0
  9 11  2  0  0  0  0
 10 19  1  0  0  0  0
 11 20  1  0  0  0  0
M  END
> <ConfClashScore>
0 

> <ConfOneFourInteractionScore>
-1 

> <ConfScore>
0.00371295 

> <ConfScorePBest>
0.00551946 

> <ConfTolerance>
0.037362 

$$$$
﻿1H-Indole-5-methanol
 OpenBabel06142111183D
1075-25-8 Copyright (C) 2021 ACS
 20 21  0  0  0  0  0  0  0  0999 V2000
    0.9456   -0.0316   -0.0611 C   0  0  0  1  0  0  0  0  0  0  0  0
    0.3442    0.3032   -1.3101 O   0  0  0  1  0  0  0  0  0  0  0  0
    0.8122   -3.7837    0.2184 C   0  0  0  1  0  0  0  0  0  0  0  0
   -0.3433   -3.9508    1.0090 C   0  0  0  1  0  0  0  0  0  0  0  0
    1.2081   -2.4822   -0.1188 C   0  0  0  1  0  0  0  0  0  0  0  0
    1.3255   -5.0919   -0.0585 C   0  0  0  1  0  0  0  0  0  0  0  0
   -1.0849   -2.8684    1.4712 C   0  0  0  1  0  0  0  0  0  0  0  0
   -0.5297   -5.3054    1.2013 N   0  0  0  1  0  0  0  0  0  0  0  0
    0.4721   -1.4158    0.3307 C   0  0  0  1  0  0  0  0  0  0  0  0
    0.4935   -5.9891    0.5622 C   0  0  0  1  0  0  0  0  0  0  0  0
   -0.6688   -1.6049    1.1188 C   0  0  0  1  0  0  0  0  0  0  0  0
    0.6518    0.6772    0.6847 H   0  0  0  1  0  0  0  0  0  0  0  0
    2.0112   -0.0266   -0.1585 H   0  0  0  1  0  0  0  0  0  0  0  0
    0.9894    0.2023   -2.0137 H   0  0  0  1  0  0  0  0  0  0  0  0
    2.0529   -2.3264   -0.7049 H   0  0  0  1  0  0  0  0  0  0  0  0
    2.1690   -5.3186   -0.6231 H   0  0  0  1  0  0  0  0  0  0  0  0
   -1.9273   -3.0096    2.0645 H   0  0  0  1  0  0  0  0  0  0  0  0
   -1.2631   -5.7155    1.7057 H   0  0  0  1  0  0  0  0  0  0  0  0
    0.6120   -7.0223    0.5545 H   0  0  0  1  0  0  0  0  0  0  0  0
   -1.2103   -0.7783    1.4429 H   0  0  0  1  0  0  0  0  0  0  0  0
  1  2  1  0  0  0  0
  1  9  1  0  0  0  0
  1 12  1  0  0  0  0
  1 13  1  0  0  0  0
  2 14  1  0  0  0  0
  3  4  1  0  0  0  0
  3  5  2  0  0  0  0
  3  6  1  0  0  0  0
  4  7  2  0  0  0  0
  4  8  1  0  0  0  0
  5  9  1  0  0  0  0
  5 15  1  0  0  0  0
  6 10  2  0  0  0  0
  6 16  1  0  0  0  0
  7 11  1  0  0  0  0
  7 17  1  0  0  0  0
  8 10  1  0  0  0  0
  8 18  1  0  0  0  0
  9 11  2  0  0  0  0
 10 19  1  0  0  0  0
 11 20  1  0  0  0  0
M  END
> <ConfClashScore>
0 

> <ConfOneFourInteractionScore>
-1 

> <ConfScore>
0.00371295 

> <ConfScorePBest>
0.00541646 

> <ConfTolerance>
0.0294592 

$$$$
﻿1H-Indole-5-methanol
 OpenBabel06142111183D
1075-25-8 Copyright (C) 2021 ACS
 20 21  0  0  0  0  0  0  0  0999 V2000
    0.9065   -0.0247   -0.0347 C   0  0  0  1  0  0  0  0  0  0  0  0
    1.6467    0.5503    1.0321 O   0  0  0  1  0  0  0  0  0  0  0  0
    0.8148   -3.7860    0.2167 C   0  0  0  1  0  0  0  0  0  0  0  0
   -0.3411   -3.9500    1.0075 C   0  0  0  1  0  0  0  0  0  0  0  0
    1.2132   -2.4857   -0.1220 C   0  0  0  1  0  0  0  0  0  0  0  0
    1.3257   -5.0954   -0.0585 C   0  0  0  1  0  0  0  0  0  0  0  0
   -1.0807   -2.8656    1.4682 C   0  0  0  1  0  0  0  0  0  0  0  0
   -0.5300   -5.3040    1.2014 N   0  0  0  1  0  0  0  0  0  0  0  0
    0.4791   -1.4174    0.3260 C   0  0  0  1  0  0  0  0  0  0  0  0
    0.4920   -5.9903    0.5633 C   0  0  0  1  0  0  0  0  0  0  0  0
   -0.6622   -1.6033    1.1142 C   0  0  0  1  0  0  0  0  0  0  0  0
    1.5184   -0.0585   -0.9119 H   0  0  0  1  0  0  0  0  0  0  0  0
    0.0399    0.5729   -0.2265 H   0  0  0  1  0  0  0  0  0  0  0  0
    1.0559    1.0533    1.5975 H   0  0  0  1  0  0  0  0  0  0  0  0
    2.0584   -2.3322   -0.7083 H   0  0  0  1  0  0  0  0  0  0  0  0
    2.1688   -5.3245   -0.6227 H   0  0  0  1  0  0  0  0  0  0  0  0
   -1.9235   -3.0045    2.0616 H   0  0  0  1  0  0  0  0  0  0  0  0
   -1.2642   -5.7120    1.7062 H   0  0  0  1  0  0  0  0  0  0  0  0
    0.6086   -7.0237    0.5569 H   0  0  0  1  0  0  0  0  0  0  0  0
   -1.2022   -0.7753    1.4372 H   0  0  0  1  0  0  0  0  0  0  0  0
  1  2  1  0  0  0  0
  1  9  1  0  0  0  0
  1 12  1  0  0  0  0
  1 13  1  0  0  0  0
  2 14  1  0  0  0  0
  3  4  1  0  0  0  0
  3  5  2  0  0  0  0
  3  6  1  0  0  0  0
  4  7  2  0  0  0  0
  4  8  1  0  0  0  0
  5  9  1  0  0  0  0
  5 15  1  0  0  0  0
  6 10  2  0  0  0  0
  6 16  1  0  0  0  0
  7 11  1  0  0  0  0
  7 17  1  0  0  0  0
  8 10  1  0  0  0  0
  8 18  1  0  0  0  0
  9 11  2  0  0  0  0
 10 19  1  0  0  0  0
 11 20  1  0  0  0  0
M  END
> <ConfClashScore>
0 

> <ConfOneFourInteractionScore>
-1 

> <ConfScore>
0.00371295 

> <ConfScorePBest>
0.00531345 

> <ConfTolerance>
0.0786144 

$$$$
﻿1H-Indole-5-methanol
 OpenBabel06142111183D
1075-25-8 Copyright (C) 2021 ACS
 20 21  0  0  0  0  0  0  0  0999 V2000
    0.9072   -0.0225   -0.0353 C   0  0  0  1  0  0  0  0  0  0  0  0
    0.4124    0.4004   -1.2988 O   0  0  0  1  0  0  0  0  0  0  0  0
    0.8148   -3.7862    0.2167 C   0  0  0  1  0  0  0  0  0  0  0  0
   -0.3411   -3.9501    1.0075 C   0  0  0  1  0  0  0  0  0  0  0  0
    1.2131   -2.4858   -0.1220 C   0  0  0  1  0  0  0  0  0  0  0  0
    1.3257   -5.0956   -0.0585 C   0  0  0  1  0  0  0  0  0  0  0  0
   -1.0808   -2.8657    1.4682 C   0  0  0  1  0  0  0  0  0  0  0  0
   -0.5300   -5.3041    1.2015 N   0  0  0  1  0  0  0  0  0  0  0  0
    0.4790   -1.4175    0.3261 C   0  0  0  1  0  0  0  0  0  0  0  0
    0.4920   -5.9905    0.5633 C   0  0  0  1  0  0  0  0  0  0  0  0
   -0.6623   -1.6035    1.1142 C   0  0  0  1  0  0  0  0  0  0  0  0
    0.5461    0.6500    0.7146 H   0  0  0  1  0  0  0  0  0  0  0  0
    1.9764    0.0104   -0.0596 H   0  0  0  1  0  0  0  0  0  0  0  0
    1.0626    0.2080   -1.9783 H   0  0  0  1  0  0  0  0  0  0  0  0
    2.0583   -2.3323   -0.7082 H   0  0  0  1  0  0  0  0  0  0  0  0
    2.1688   -5.3246   -0.6226 H   0  0  0  1  0  0  0  0  0  0  0  0
   -1.9235   -3.0046    2.0616 H   0  0  0  1  0  0  0  0  0  0  0  0
   -1.2642   -5.7122    1.7062 H   0  0  0  1  0  0  0  0  0  0  0  0
    0.6086   -7.0239    0.5569 H   0  0  0  1  0  0  0  0  0  0  0  0
   -1.2023   -0.7754    1.4372 H   0  0  0  1  0  0  0  0  0  0  0  0
  1  2  1  0  0  0  0
  1  9  1  0  0  0  0
  1 12  1  0  0  0  0
  1 13  1  0  0  0  0
  2 14  1  0  0  0  0
  3  4  1  0  0  0  0
  3  5  2  0  0  0  0
  3  6  1  0  0  0  0
  4  7  2  0  0  0  0
  4  8  1  0  0  0  0
  5  9  1  0  0  0  0
  5 15  1  0  0  0  0
  6 10  2  0  0  0  0
  6 16  1  0  0  0  0
  7 11  1  0  0  0  0
  7 17  1  0  0  0  0
  8 10  1  0  0  0  0
  8 18  1  0  0  0  0
  9 11  2  0  0  0  0
 10 19  1  0  0  0  0
 11 20  1  0  0  0  0
M  END
> <ConfClashScore>
0 

> <ConfOneFourInteractionScore>
-1 

> <ConfScore>
0.00371295 

> <ConfScorePBest>
0.00521045 

> <ConfTolerance>
0.0368238 

$$$$
﻿1H-Indole-5-methanol
 OpenBabel06142111183D
1075-25-8 Copyright (C) 2021 ACS
 20 21  0  0  0  0  0  0  0  0999 V2000
    0.8779   -0.0216   -0.0985 C   0  0  0  1  0  0  0  0  0  0  0  0
    0.1190    0.4419   -1.2058 O   0  0  0  1  0  0  0  0  0  0  0  0
    0.8182   -3.7857    0.2231 C   0  0  0  1  0  0  0  0  0  0  0  0
   -0.3407   -3.9505    1.0092 C   0  0  0  1  0  0  0  0  0  0  0  0
    1.2211   -2.4848   -0.1078 C   0  0  0  1  0  0  0  0  0  0  0  0
    1.3266   -5.0951   -0.0568 C   0  0  0  1  0  0  0  0  0  0  0  0
   -1.0790   -2.8665    1.4729 C   0  0  0  1  0  0  0  0  0  0  0  0
   -0.5338   -5.3050    1.1959 N   0  0  0  1  0  0  0  0  0  0  0  0
    0.4883   -1.4167    0.3431 C   0  0  0  1  0  0  0  0  0  0  0  0
    0.4885   -5.9908    0.5577 C   0  0  0  1  0  0  0  0  0  0  0  0
   -0.6561   -1.6036    1.1266 C   0  0  0  1  0  0  0  0  0  0  0  0
    0.7293    0.6495    0.7215 H   0  0  0  1  0  0  0  0  0  0  0  0
    1.9122   -0.0272   -0.3726 H   0  0  0  1  0  0  0  0  0  0  0  0
    0.5288    0.1455   -2.0217 H   0  0  0  1  0  0  0  0  0  0  0  0
    2.0687   -2.3306   -0.6904 H   0  0  0  1  0  0  0  0  0  0  0  0
    2.1710   -5.3236   -0.6193 H   0  0  0  1  0  0  0  0  0  0  0  0
   -1.9241   -3.0061    2.0628 H   0  0  0  1  0  0  0  0  0  0  0  0
   -1.2708   -5.7136    1.6961 H   0  0  0  1  0  0  0  0  0  0  0  0
    0.6024   -7.0245    0.5466 H   0  0  0  1  0  0  0  0  0  0  0  0
   -1.1950   -0.7758    1.4519 H   0  0  0  1  0  0  0  0  0  0  0  0
  1  2  1  0  0  0  0
  1  9  1  0  0  0  0
  1 12  1  0  0  0  0
  1 13  1  0  0  0  0
  2 14  1  0  0  0  0
  3  4  1  0  0  0  0
  3  5  2  0  0  0  0
  3  6  1  0  0  0  0
  4  7  2  0  0  0  0
  4  8  1  0  0  0  0
  5  9  1  0  0  0  0
  5 15  1  0  0  0  0
  6 10  2  0  0  0  0
  6 16  1  0  0  0  0
  7 11  1  0  0  0  0
  7 17  1  0  0  0  0
  8 10  1  0  0  0  0
  8 18  1  0  0  0  0
  9 11  2  0  0  0  0
 10 19  1  0  0  0  0
 11 20  1  0  0  0  0
M  END
> <ConfClashScore>
0 

> <ConfOneFourInteractionScore>
-1 

> <ConfScore>
0.00371295 

> <ConfScorePBest>
0.00510745 

> <ConfTolerance>
0.339841 

$$$$
﻿1H-Indole-5-methanol
 OpenBabel06142111183D
1075-25-8 Copyright (C) 2021 ACS
 20 21  0  0  0  0  0  0  0  0999 V2000
    0.9072   -0.0225   -0.0353 C   0  0  0  1  0  0  0  0  0  0  0  0
    1.9252    0.4842    0.8173 O   0  0  0  1  0  0  0  0  0  0  0  0
    0.8148   -3.7862    0.2167 C   0  0  0  1  0  0  0  0  0  0  0  0
   -0.3411   -3.9501    1.0075 C   0  0  0  1  0  0  0  0  0  0  0  0
    1.2131   -2.4858   -0.1220 C   0  0  0  1  0  0  0  0  0  0  0  0
    1.3257   -5.0956   -0.0585 C   0  0  0  1  0  0  0  0  0  0  0  0
   -1.0808   -2.8657    1.4682 C   0  0  0  1  0  0  0  0  0  0  0  0
   -0.5300   -5.3041    1.2015 N   0  0  0  1  0  0  0  0  0  0  0  0
    0.4790   -1.4175    0.3261 C   0  0  0  1  0  0  0  0  0  0  0  0
    0.4920   -5.9905    0.5633 C   0  0  0  1  0  0  0  0  0  0  0  0
   -0.6623   -1.6035    1.1142 C   0  0  0  1  0  0  0  0  0  0  0  0
    1.2756   -0.0284   -1.0399 H   0  0  0  1  0  0  0  0  0  0  0  0
    0.0561    0.6228    0.0292 H   0  0  0  1  0  0  0  0  0  0  0  0
    1.5311    1.0474    1.4874 H   0  0  0  1  0  0  0  0  0  0  0  0
    2.0583   -2.3323   -0.7082 H   0  0  0  1  0  0  0  0  0  0  0  0
    2.1688   -5.3246   -0.6226 H   0  0  0  1  0  0  0  0  0  0  0  0
   -1.9235   -3.0046    2.0616 H   0  0  0  1  0  0  0  0  0  0  0  0
   -1.2642   -5.7122    1.7062 H   0  0  0  1  0  0  0  0  0  0  0  0
    0.6086   -7.0239    0.5569 H   0  0  0  1  0  0  0  0  0  0  0  0
   -1.2023   -0.7754    1.4372 H   0  0  0  1  0  0  0  0  0  0  0  0
  1  2  1  0  0  0  0
  1  9  1  0  0  0  0
  1 12  1  0  0  0  0
  1 13  1  0  0  0  0
  2 14  1  0  0  0  0
  3  4  1  0  0  0  0
  3  5  2  0  0  0  0
  3  6  1  0  0  0  0
  4  7  2  0  0  0  0
  4  8  1  0  0  0  0
  5  9  1  0  0  0  0
  5 15  1  0  0  0  0
  6 10  2  0  0  0  0
  6 16  1  0  0  0  0
  7 11  1  0  0  0  0
  7 17  1  0  0  0  0
  8 10  1  0  0  0  0
  8 18  1  0  0  0  0
  9 11  2  0  0  0  0
 10 19  1  0  0  0  0
 11 20  1  0  0  0  0
M  END
> <ConfClashScore>
0 

> <ConfOneFourInteractionScore>
-1 

> <ConfScore>
0.00371295 

> <ConfScorePBest>
0.00500445 

> <ConfTolerance>
0.352153 

$$$$
﻿1H-Indole-5-methanol
 OpenBabel06142111183D
1075-25-8 Copyright (C) 2021 ACS
 20 21  0  0  0  0  0  0  0  0999 V2000
    0.8714    0.0060   -0.0123 C   0  0  0  1  0  0  0  0  0  0  0  0
    0.4922    0.8305    1.0800 O   0  0  0  1  0  0  0  0  0  0  0  0
    0.8172   -3.7899    0.2153 C   0  0  0  1  0  0  0  0  0  0  0  0
   -0.3391   -3.9507    1.0061 C   0  0  0  1  0  0  0  0  0  0  0  0
    1.2180   -2.4908   -0.1251 C   0  0  0  1  0  0  0  0  0  0  0  0
    1.3257   -5.1007   -0.0582 C   0  0  0  1  0  0  0  0  0  0  0  0
   -1.0767   -2.8643    1.4654 C   0  0  0  1  0  0  0  0  0  0  0  0
   -0.5306   -5.3041    1.2019 N   0  0  0  1  0  0  0  0  0  0  0  0
    0.4859   -1.4205    0.3215 C   0  0  0  1  0  0  0  0  0  0  0  0
    0.4902   -5.9932    0.5647 C   0  0  0  1  0  0  0  0  0  0  0  0
   -0.6558   -1.6033    1.1098 C   0  0  0  1  0  0  0  0  0  0  0  0
    1.9285    0.0699   -0.1654 H   0  0  0  1  0  0  0  0  0  0  0  0
    0.3624    0.3215   -0.8990 H   0  0  0  1  0  0  0  0  0  0  0  0
   -0.3537    1.2433    0.8913 H   0  0  0  1  0  0  0  0  0  0  0  0
    2.0636   -2.3396   -0.7114 H   0  0  0  1  0  0  0  0  0  0  0  0
    2.1684   -5.3321   -0.6219 H   0  0  0  1  0  0  0  0  0  0  0  0
   -1.9198   -3.0008    2.0588 H   0  0  0  1  0  0  0  0  0  0  0  0
   -1.2656   -5.7101    1.7071 H   0  0  0  1  0  0  0  0  0  0  0  0
    0.6048   -7.0268    0.5597 H   0  0  0  1  0  0  0  0  0  0  0  0
   -1.1943   -0.7738    1.4317 H   0  0  0  1  0  0  0  0  0  0  0  0
  1  2  1  0  0  0  0
  1  9  1  0  0  0  0
  1 12  1  0  0  0  0
  1 13  1  0  0  0  0
  2 14  1  0  0  0  0
  3  4  1  0  0  0  0
  3  5  2  0  0  0  0
  3  6  1  0  0  0  0
  4  7  2  0  0  0  0
  4  8  1  0  0  0  0
  5  9  1  0  0  0  0
  5 15  1  0  0  0  0
  6 10  2  0  0  0  0
  6 16  1  0  0  0  0
  7 11  1  0  0  0  0
  7 17  1  0  0  0  0
  8 10  1  0  0  0  0
  8 18  1  0  0  0  0
  9 11  2  0  0  0  0
 10 19  1  0  0  0  0
 11 20  1  0  0  0  0
M  END
> <ConfClashScore>
0 

> <ConfOneFourInteractionScore>
-0.988242 

> <ConfScore>
0.306664 

> <ConfScorePBest>
0.00490145 

> <ConfTolerance>
0.703014 

$$$$
